 12
#Generated by chemFileConvert.py
  O        1.6292290    -0.6199230     1.1141820
  O       -2.7620640    -0.0349680     0.0794940
  O        2.1880480    -0.1219360    -1.0328490
  O       -0.8730120    -1.2160300    -0.3618370
  C        0.5917800     1.2475860     0.1132420
  C       -0.7453650     1.1476220     0.0764550
  C        1.5305940     0.0928630    -0.0316350
  C       -1.4204700    -0.1583660    -0.0933140
  H        1.0613100     2.2244250     0.1997410
  H       -1.3742940     2.0281270     0.1583660
  H        2.2470800    -1.3551440     0.9157090
  H       -3.1309400    -0.9327820    -0.0542280
