  9
#Generated by chemFileConvert.py
  O        0.0000000     0.6008970     0.0000000
  C        0.0000000    -0.2003840     1.1669660
  C        0.0000000    -0.2003840    -1.1669660
  H        0.8921560    -0.8409110     1.2152030
  H       -0.8921560    -0.8409130     1.2152030
  H        0.0000000     0.4805400     2.0188370
  H        0.0000000     0.4805400    -2.0188370
  H        0.8921560    -0.8409110    -1.2152030
  H       -0.8921560    -0.8409130    -1.2152030
