 18
#Generated by chemFileConvert.py
  C        1.9266090    -0.0000890    -0.5924850
  C        0.4398190    -0.0000460    -0.3444670
  C       -0.2606680    -1.2037420    -0.1913530
  C       -0.2605990     1.2036990    -0.1914120
  C        2.7219130     0.0000660     0.7167330
  C       -1.6268400    -1.2070220     0.0949730
  C       -1.6267700     1.2070730     0.0949130
  C       -2.3134410     0.0000480     0.2426250
  H        2.1979900    -0.8796920    -1.1880840
  H        2.1980070     0.8793620    -1.1883020
  H        0.2684130    -2.1485130    -0.3108610
  H        0.2685360     2.1484340    -0.3109680
  H        2.4780800     0.8841700     1.3127300
  H        3.7996870     0.0000290     0.5260270
  H        2.4780570    -0.8838840     1.3129490
  H       -2.1554030    -2.1514610     0.2032820
  H       -2.1552790     2.1515470     0.2031750
  H       -3.3782200     0.0000840     0.4628910
