 26
#Generated by chemFileConvert.py
  O       -2.2193770     1.8892330     0.0268230
  O       -3.7558620     0.4909310    -0.8718590
  N       -2.7972650    -1.6524490     0.5031070
  N        1.9782870     0.3250840    -0.2428510
  N        3.8986140     1.3191370     0.6232000
  N        4.0945810    -0.8301440    -0.2248910
  C       -0.6989470    -0.3870780     0.7275970
  C       -0.2062790    -0.6613260    -0.6876040
  C       -2.2281040    -0.3472380     0.8304820
  C        1.3017160    -0.8701890    -0.7302520
  C       -2.8235710     0.6804660    -0.1079880
  C        3.2335740     0.2410780     0.0212990
  H       -0.2749720     0.5529910     1.0902940
  H       -0.3479120    -1.1823300     1.4000480
  H       -0.7189380    -1.5432990    -1.0858630
  H       -0.4507980     0.1909300    -1.3325750
  H       -2.4926300     0.0060750     1.8439900
  H        1.5489680    -1.7592400    -0.1213590
  H        1.6102530    -1.0961940    -1.7629760
  H       -3.7667330    -1.5380950     0.2123320
  H       -2.7872020    -2.2442710     1.3309830
  H       -2.6822190     2.4830960    -0.6002000
  H        3.2771960     2.1225880     0.6500220
  H        4.7687340     1.5514780     0.1515250
  H        4.8021180    -0.9483820     0.4927870
  H        3.6261930    -1.7023420    -0.4398710
