 11
#Generated by chemFileConvert.py
  N       -0.0401140     1.4416700     0.0000000
  C       -0.0039120     0.1553900     0.0000000
  C        1.3400200    -0.5205790     0.0000000
  C       -1.2045230    -0.7597350     0.0000000
  H        2.1276800     0.2334830     0.0000000
  H        1.4494410    -1.1614480     0.8815750
  H        1.4494420    -1.1614490    -0.8815740
  H       -2.1385970    -0.1915910    -0.0000020
  H       -1.1893680    -1.4102220     0.8809740
  H       -1.1893660    -1.4102240    -0.8809720
  H       -1.0179430     1.7593080     0.0000000
