 32
#Generated by chemFileConvert.py
  O        0.0080240     1.9557290    -1.2010490
  N        1.2107480     0.4598270     0.0546490
  C        3.6847300    -0.9474750     0.4094490
  C        3.5363770     0.1704140    -0.6232250
  C        2.3378000    -1.6170770     0.6850140
  C        2.4632400     1.1671010    -0.1951490
  C        1.2927520    -0.5766890     1.0779760
  C        0.0511550     0.9304310    -0.5074260
  C       -1.1818380     0.1025210    -0.2933950
  C       -2.2853240     0.6546650     0.3827460
  C       -1.2605990    -1.1714540    -0.8692850
  C       -3.4470880    -0.1184300     0.4861880
  C       -2.2123070     2.0356740     0.9810420
  C       -2.4338590    -1.9198810    -0.7676540
  C       -3.5295210    -1.3906520    -0.0848430
  H        4.4185420    -1.6882180     0.0719600
  H        4.0715260    -0.5230670     1.3462860
  H        4.4889640     0.6951130    -0.7648360
  H        3.2506310    -0.2544260    -1.5931960
  H        1.9901420    -2.1414090    -0.2136460
  H        2.4313960    -2.3624470     1.4842520
  H        2.7733850     1.6870560     0.7244460
  H        2.2658360     1.9195830    -0.9598470
  H        0.3091360    -1.0271130     1.2139130
  H        1.5822090    -0.1066240     2.0316430
  H       -0.3999140    -1.5686650    -1.4050660
  H       -4.3074940     0.2887120     1.0148120
  H       -2.0229560     2.7800990     0.2040190
  H       -3.1465650     2.2829300     1.4923730
  H       -1.3963850     2.1107870     1.7080510
  H       -2.4929050    -2.9058400    -1.2224820
  H       -4.4480800    -1.9659880     0.0045340
