 23
#Generated by chemFileConvert.py
  N        1.4447430     0.9271060    -0.5600120
  N       -0.8646290     2.1728000     0.5033790
  C       -0.6433280    -0.2041590    -0.0552500
  C        0.8343400    -0.1560850    -0.0228830
  C       -1.4414270     0.9434540     0.1762700
  C       -1.2729090    -1.4294320    -0.3272730
  C       -2.8381000     0.7953410     0.1919050
  C        1.5703020    -1.2114420     0.5410850
  C       -2.6593290    -1.5570310    -0.3269880
  C       -3.4429950    -0.4315550    -0.0645950
  C        2.9613910    -1.1706130     0.5101660
  C        3.5885550    -0.0650650    -0.0636080
  C        2.7882770     0.9583460    -0.5692770
  H       -0.6539860    -2.2940070    -0.5598860
  H       -3.4538380     1.6721500     0.3887520
  H        1.0497850    -2.0407580     1.0110860
  H       -3.1218920    -2.5149200    -0.5495680
  H       -4.5281350    -0.5063600    -0.0566640
  H        3.5458790    -1.9798730     0.9414670
  H        0.0235730     2.3183180     0.0298570
  H       -1.4980030     2.9543290     0.3690670
  H        4.6711930     0.0129590    -0.1060480
  H        3.2359550     1.8482630    -1.0089550
