 16
#Generated by chemFileConvert.py
  C        0.6677790    -0.2877210    -0.0000110
  C       -0.6677790     0.2877220     0.0000160
  C        1.8019300     0.4385480     0.0000620
  C       -1.8019300    -0.4385470    -0.0000660
  C        3.1824410    -0.1410110     0.0000540
  C       -3.1824410     0.1410100    -0.0000550
  H        0.7356230    -1.3773410    -0.0000890
  H       -0.7356240     1.3773420     0.0001000
  H        1.7263590     1.5270040     0.0001430
  H       -1.7263580    -1.5270030    -0.0001530
  H        3.1481690    -1.2341710    -0.0000530
  H        3.7490380     0.1823190    -0.8804680
  H        3.7489810     0.1821480     0.8806760
  H       -3.7489900    -0.1821670    -0.8806650
  H       -3.7490280    -0.1823020     0.8804800
  H       -3.1481700     1.2341700     0.0000290
