 21
#Generated by chemFileConvert.py
  O       -2.2107750     0.8978600    -0.2733320
  N        0.4179390     1.5203040     0.1461680
  C        0.0878120     0.2164420     0.0271180
  C        2.3998680    -0.4955570    -0.0623170
  C       -1.3350400    -0.1078320     0.0315450
  C        1.0408720    -0.8066100    -0.0918380
  C        2.7418980     0.8557830     0.0631340
  C       -2.0342350    -1.2673950     0.2896040
  C        3.4530570    -1.5672900    -0.1431820
  C        1.7294980     1.8098740     0.1525310
  C       -3.4121620    -0.9559240     0.1310590
  C       -3.4653520     0.3687260    -0.2086420
  H        0.7170110    -1.8372470    -0.2233280
  H        3.7848650     1.1649900     0.0805800
  H       -1.6110020    -2.2190760     0.5830470
  H        3.8041270    -1.8439520     0.8567290
  H        3.0606410    -2.4687290    -0.6216030
  H        4.3194070    -1.2241690    -0.7156890
  H        1.9756270     2.8673380     0.2394070
  H       -4.2567510    -1.6189340     0.2608760
  H       -4.2706050     1.0534680    -0.4306090
