 20
#Generated by chemFileConvert.py
  O        1.4171000     1.3483990     0.0000050
  O       -1.4171000     1.3483990    -0.0000070
  N        0.0000000    -0.4846440    -0.0000030
  C        2.4067740    -0.8603910    -0.0000090
  C       -2.4067740    -0.8603910     0.0000060
  C        1.2583980     0.1386290    -0.0000010
  C       -1.2583980     0.1386290    -0.0000020
  C        3.7624160    -0.1688120     0.0000070
  C       -3.7624160    -0.1688120     0.0000020
  H        2.3018640    -1.5106550    -0.8782810
  H        2.3018560    -1.5106830     0.8782410
  H       -2.3018590    -1.5106620     0.8782720
  H       -2.3018600    -1.5106760    -0.8782500
  H        0.0000000    -1.4988460    -0.0000020
  H        3.8704210     0.4663420    -0.8807450
  H        4.5662930    -0.9094080     0.0000080
  H        3.8704060     0.4663280     0.8807730
  H       -4.5662930    -0.9094090     0.0000000
  H       -3.8704160     0.4663350     0.8807610
  H       -3.8704100     0.4663350    -0.8807570
