  8
#Generated by chemFileConvert.py
  N       -1.2071110    -0.3593690     0.0000070
  C        1.2028970    -0.1434370     0.0000120
  C       -0.1841630     0.4169010    -0.0000240
  H        1.1529110    -1.2333140     0.0000580
  H        1.7556810     0.1968570     0.8818310
  H        1.7556900     0.1967810    -0.8818300
  H       -0.2601790     1.5130940    -0.0000440
  H       -2.0667260     0.2013840     0.0000030
