 14
#Generated by chemFileConvert.py
  O       -0.0679500     1.2804190     0.2912780
  O       -2.4243340     0.0219370    -0.2318290
  O        2.3233720     0.1231770    -0.2581300
  C       -0.0144220    -0.0326010    -0.2709950
  C       -1.2865220    -0.7148500     0.1919400
  C        1.2539560    -0.7229870     0.1828220
  H       -0.0165930     0.0251350    -1.3695740
  H       -1.2581970    -0.8124860     1.2878120
  H       -1.3730900    -1.7140410    -0.2445610
  H        1.3311710    -1.7270150    -0.2570240
  H        1.2459170    -0.8113320     1.2773370
  H        0.7928980     1.6884400     0.0824910
  H       -2.2316880     0.9438100     0.0202110
  H        3.1428100    -0.1741490     0.1701570
