 19
#Generated by chemFileConvert.py
  N        0.6328470     1.8116750    -0.0000110
  C        0.1785880    -0.3910020     0.0000110
  C       -0.4037990     0.9065110    -0.0000170
  C        1.6028840    -0.2271790     0.0000140
  C        1.8343140     1.1308640     0.0000150
  C       -0.6688480    -1.5149650    -0.0000030
  C       -1.7894490     1.1098660    -0.0000340
  C        2.6260040    -1.3181660     0.0000720
  C       -2.0432580    -1.3188880    -0.0000200
  C       -2.5978380    -0.0201330    -0.0000420
  H        0.5326210     2.8176630    -0.0000280
  H        2.7737410     1.6710700     0.0000120
  H       -0.2538270    -2.5213870     0.0000180
  H       -2.2194200     2.1097690    -0.0000540
  H        2.5281550    -1.9589590     0.8831170
  H        2.5278660    -1.9593030    -0.8826910
  H        3.6376920    -0.9014020    -0.0001770
  H       -2.7093880    -2.1785190    -0.0000290
  H       -3.6789550     0.0979000    -0.0000560
