 12
#Generated by chemFileConvert.py
 Cl       -3.1169330    -0.0000020     0.0000000
 Cl        1.5584670     2.6993450     0.0000000
 Cl        1.5584650    -2.6993450     0.0000000
  C       -1.3808510     0.0000010     0.0000000
  C        0.6904270     1.1958530     0.0000000
  C        0.6904270    -1.1958530     0.0000000
  C       -0.7037920     1.2190070     0.0000000
  C       -0.7037920    -1.2190040     0.0000000
  C        1.4075860     0.0000000     0.0000000
  H       -1.2463690     2.1587740     0.0000000
  H       -1.2463710    -2.1587710     0.0000000
  H        2.4927370     0.0000050     0.0000000
