 23
#Generated by chemFileConvert.py
  S        0.0000010    -0.5344910     0.0000050
  O        0.2465780    -1.2674340    -1.2582100
  O       -0.2465760    -1.2674230     1.2582270
  C       -1.4260780     0.5455690    -0.2807730
  C        1.4260820     0.5455700     0.2807730
  C       -1.6587340     1.4791280     0.9005660
  C       -2.6214390    -0.3695300    -0.5423140
  C        1.6587160     1.4791480    -0.9005550
  C        2.6214500    -0.3695300     0.5422790
  H       -1.1885770     1.1070300    -1.1904720
  H        1.1885950     1.1070160     1.1904860
  H       -2.5841820     2.0394700     0.7381390
  H       -1.7612990     0.8994750     1.8215980
  H       -0.8497540     2.2033300     1.0283560
  H       -3.4964690     0.2440390    -0.7735820
  H       -2.8366250    -0.9717990     0.3436230
  H       -2.4263300    -1.0372830    -1.3837320
  H        2.5841850     2.0394630    -0.7381520
  H        1.7612340     0.8995120    -1.8216040
  H        0.8497500     2.2033730    -1.0282990
  H        3.4964760     0.2440360     0.7735650
  H        2.8366350    -0.9717700    -0.3436780
  H        2.4263480    -1.0373120     1.3836770
