 12
#Generated by chemFileConvert.py
 Br        2.8415020    -0.6219390     0.0000430
 Br       -2.8415020    -0.6219380    -0.0000580
  C        0.0000000    -0.3851670    -0.0000040
  C        1.1945970     0.3350330     0.0000260
  C       -1.1945960     0.3350330    -0.0000150
  C        1.2148590     1.7299900     0.0000420
  C       -1.2148570     1.7299910    -0.0000010
  C        0.0000010     2.4176760     0.0000290
  H        0.0000000    -1.4703640    -0.0000170
  H        2.1606700     2.2629480     0.0000660
  H       -2.1606680     2.2629490    -0.0000110
  H        0.0000020     3.5048130     0.0000400
