6
MP2_polar: Axx=8.9551 Ayy=9.2979 Azz=9.5864 
P   -0.128763 -0.000097  0.075819
O    1.110341  0.000986 -1.103138
O   -0.942324  1.290534 -0.156079
O    0.787230 -0.002352  1.333041
O   -0.944045 -1.288977 -0.159550
H    1.841822 -0.000074 -0.451486
7
MP2_polar: Axx=6.8096 Ayy=7.0048 Azz=7.1800 
P   -0.002787 -0.159257  0.004051
O    0.346249 -0.842010  1.304077
O    1.190659  0.959530 -0.354213
O   -0.370357 -0.963960 -1.218813
O   -1.165508  1.021435  0.248845
H    2.019750  0.453818 -0.332075
H   -1.986293  0.535086  0.432144
8
MP2_polar: Axx=2.8413 Ayy=2.8413 Azz=3.3001 
N    0.709280  0.000014 -0.000010
H    1.087014  0.416839 -0.860947
H    1.087112  0.537182  0.791455
H    1.086970 -0.954077  0.069457
C   -0.800919  0.000005  0.000009
H   -1.140072 -0.450804  0.930232
H   -1.140289  1.030965 -0.074716
H   -1.140182 -0.580233 -0.855466
10
MP2_polar: Axx=3.7009 Ayy=6.2367 Azz=6.2653 
C   -0.000927 -0.001371 -0.002311
N    0.495583  1.239129  0.034547
N    0.836036 -1.041754 -0.033068
N   -1.320625 -0.200020 -0.019873
H   -1.965374  0.567481 -0.162251
H   -1.724030 -1.088925  0.249555
H    1.441284  1.427085 -0.276618
H   -0.111865  2.041375  0.145810
H    0.485610 -1.991547 -0.061284
H    1.802983 -0.928729  0.247405
13
MP2_polar: Axx=5.0758 Ayy=7.4803 Azz=8.8855 
C   -1.966564 -0.046808  0.000123
C    0.509035 -0.006578 -0.000279
N   -0.641219 -0.673736  0.009359
N    0.528616  1.329625 -0.019785
N    1.686951 -0.663550  0.051679
H   -0.597246 -1.678900 -0.112724
H   -0.323907  1.873010 -0.027728
H    1.383229  1.826680  0.199204
H    2.494055 -0.256804 -0.407638
H    1.687950 -1.676226  0.083458
H   -2.698845 -0.820933 -0.219628
H   -2.027385  0.717241 -0.778390
H   -2.193108  0.389869  0.975614
14
MP2_polar: Axx=5.6281 Ayy=6.5651 Azz=6.6094 
N    0.004331 -0.002102 -0.345759
C   -0.636117  1.281973  0.102208
C    1.437927 -0.093057  0.107572
C   -0.805623 -1.183287  0.105450
H    0.001134 -0.008692 -1.373521
H   -1.675589  1.290307 -0.223520
H   -0.590275  1.315387  1.190153
H   -0.087684  2.119764 -0.327150
H    2.069888  0.426090 -0.612483
H    1.523658  0.349043  1.098793
H    1.728648 -1.142334  0.140108
H   -0.818059 -1.190083  1.195534
H   -0.341388 -2.092981 -0.273369
H   -1.817773 -1.085563 -0.285601
11
MP2_polar: Axx=4.2434 Ayy=4.4365 Azz=5.2274 
N    0.000201  0.542095  0.002411
C   -1.261785 -0.279005 -0.000349
C    1.263145 -0.276466  0.000365
H   -0.006697  1.167941 -0.813078
H    0.003634  1.160862  0.823336
H   -1.386702 -0.706618 -0.993384
H   -1.166998 -1.056977  0.754823
H   -2.102765  0.374674  0.228504
H    1.395575 -0.705586  0.991376
H    1.153333 -1.063269 -0.744383
H    2.101050  0.367133 -0.264168
12
MP2_polar: Axx=9.1037 Ayy=14.8254 Azz=18.3042 
C    0.286272 -1.206231 -0.000018
C   -1.105157 -1.199495  0.000011
C   -1.831495  0.000037 -0.000009
C   -1.105026  1.199451  0.000012
C    0.286435  1.206314 -0.000020
C    1.082250  0.000013  0.000001
O    2.357192 -0.000111  0.000013
H    0.832783 -2.150453 -0.000006
H   -1.641081 -2.152713 -0.000001
H   -2.920643  0.000176  0.000046
H   -1.640931  2.152646 -0.000003
H    0.832659  2.150692 -0.000002
10
MP2_polar: Axx=6.5950 Ayy=9.0446 Azz=9.8513 
O    1.761291 -0.620257  0.001530
O    0.561932  1.329814 -0.001454
C   -0.616186 -0.765429 -0.000913
C   -1.889143  0.071883 -0.000026
C    0.705206  0.072721  0.002091
H   -0.585615 -1.416857 -0.885262
H   -0.589759 -1.443375  0.862640
H   -1.828997  0.829521 -0.783908
H   -1.987368  0.615637  0.944101
H   -2.793311 -0.536432 -0.145095
7
MP2_polar: Axx=6.3514 Ayy=7.3985 Azz=8.5847 
O   -1.323607  0.773764 -0.757763
O   -1.309728 -0.942464  0.706153
O    1.185602  0.957980  0.778139
O    1.555378 -0.774397 -0.696130
C   -0.657138 -0.178584  0.003497
C    0.876804  0.013050  0.005164
H   -2.179160  0.874139 -0.295154
6
MP2_polar: Axx=6.5573 Ayy=11.0184 Azz=11.3474 
O    1.369240  1.123849 -0.135181
O   -1.369562 -1.123687 -0.135124
O    1.369562 -1.123798  0.135139
O   -1.369278  1.123759  0.135220
C    0.790933 -0.000022  0.000054
C   -0.790883 -0.000143 -0.000125
10
MP2_polar: Axx=7.9082 Ayy=8.8513 Azz=11.3247 
O    1.616088  0.766705  0.867038
O    1.879820 -0.563288 -0.946939
O   -2.481161 -0.379172  0.255632
O   -1.039735  1.136088 -0.691415
C   -0.132293 -0.809072  0.384970
C    1.164919 -0.205221 -0.022622
C   -1.363218  0.091070 -0.066761
H   -0.221551 -1.790088 -0.089061
H   -0.160417 -0.927697  1.471256
H    2.565417  0.574460  0.969759
9
MP2_polar: Axx=7.9983 Ayy=12.7645 Azz=13.6161 
O    2.364450 -0.855755  0.000749
O   -2.365876 -0.854051 -0.000688
O    1.543410  1.266096 -0.001146
O   -1.541415  1.266375  0.001595
C   -0.001097 -0.665097 -0.000275
C    1.417587  0.010242 -0.001016
C   -1.417269  0.010065 -0.001834
H   -0.000126 -1.347625  0.864712
H    0.000249 -1.364957 -0.850036
12
MP2_polar: Axx=7.4643 Ayy=11.1636 Azz=12.0334 
O    0.422328  1.548449 -0.001825
O   -2.257899  0.715906  0.001291
O   -1.439654 -1.432847 -0.001241
C    1.197977 -0.716765  0.000442
C    2.604004 -0.135737  0.000253
C    0.111800  0.354187  0.000936
C   -1.366898 -0.167510  0.001008
H    1.018454 -1.358275 -0.869621
H    1.018970 -1.371421  0.860356
H    2.727575  0.569783 -0.825747
H    2.792214  0.424260  0.920893
H    3.363282 -0.921463 -0.087519
6
MP2_polar: Axx=4.6783 Ayy=6.9556 Azz=6.9674 
O   -0.701145  1.148119  0.010974
O   -0.701163 -1.148103  0.010876
N    1.289668 -0.000076 -0.114712
C   -0.182445  0.000037 -0.011526
H    1.642939  0.833989  0.348056
H    1.642519 -0.833812  0.349279
13
MP2_polar: Axx=6.3595 Ayy=11.7345 Azz=17.7967 
N   -1.937664 -0.000313  0.000164
N   -3.074500  0.000025  0.000258
C   -0.547431  0.000000 -0.000284
C    0.093753  1.247627 -0.000254
C    0.094015 -1.247384 -0.000268
C    1.485048  1.221056 -0.000006
C    1.485344 -1.221142  0.000008
C    2.172318  0.000029  0.000297
H   -0.470015  2.176652 -0.000431
H   -0.470016 -2.176223 -0.000446
H    2.033803  2.158048  0.000114
H    2.034167 -2.158129  0.000133
H    3.258932  0.000557  0.000714
11
MP2_polar: Axx=9.0757 Ayy=9.3401 Azz=10.7027 
S   -0.539320 -0.057824 -0.000190
O   -1.572799  1.014781 -0.009233
O   -0.489445 -0.875013 -1.245353
O   -0.491127 -0.852087  1.260155
C    1.023234  0.851804 -0.006908
C    2.222683 -0.084158  0.000855
H    1.016234  1.488699  0.883199
H    1.019297  1.494449 -0.892654
H    2.262068 -0.642208 -0.936909
H    3.160533  0.472418  0.117702
H    2.122452 -0.795492  0.823476
15
MP2_polar: Axx=11.7264 Ayy=16.7638 Azz=20.7309 
S    1.549753  0.000000  0.005589
O    1.866969 -0.001302  1.456802
O    1.917768  1.253196 -0.703864
O    1.917813 -1.251919 -0.706199
C   -0.257769  0.000054 -0.038744
C   -0.959763  1.208411 -0.026254
C   -0.959724 -1.208351 -0.026185
C   -2.355606  1.207933  0.001724
C   -2.355552 -1.207972  0.001760
C   -3.058959 -0.000038  0.022427
H   -0.393784  2.135459 -0.063806
H   -0.393718 -2.135349 -0.063773
H   -2.898553  2.152236  0.006815
H   -2.898460 -2.152299  0.006885
H   -4.147692 -0.000083  0.042175
14
MP2_polar: Axx=9.2141 Ayy=16.3922 Azz=18.9285 
O    2.361563  1.145730  0.000032
O    2.361898 -1.145673  0.000024
C    0.281867  0.000022 -0.000032
C   -0.433498 -1.203824 -0.000028
C   -0.433497  1.203881 -0.000024
C   -1.829925 -1.207538  0.000009
C   -1.829924  1.207423  0.000005
C   -2.536245 -0.000055  0.000022
C    1.830215  0.000007 -0.000031
H    0.146750 -2.123205 -0.000024
H    0.146514  2.123406 -0.000042
H   -2.374459 -2.152280  0.000022
H   -2.374450  2.152139  0.000011
H   -3.625997 -0.000006  0.000060
8
MP2_polar: Axx=5.9726 Ayy=8.5224 Azz=10.7739 
O    1.601238 -0.756699 -0.000014
O    0.613357  1.313446 -0.000084
C   -0.747995 -0.638225 -0.000031
C    0.624212  0.049031  0.000159
C   -1.911640  0.027807  0.000005
H   -0.734683 -1.730205 -0.000168
H   -1.888750  1.113830  0.000259
H   -2.880793 -0.469286 -0.000100
15
MP2_polar: Axx=6.7323 Ayy=12.0485 Azz=13.4051 
N    2.316067  0.000017  0.009480
C    0.826592  0.000077 -0.016031
C    0.171456  1.225926 -0.004823
C    0.171579 -1.225843 -0.004822
C   -1.224903  1.212955  0.001179
C   -1.224768 -1.213032  0.001176
C   -1.918319 -0.000074  0.006946
H    0.716029  2.168306 -0.009286
H    0.716270 -2.168156 -0.009283
H    2.685849 -0.001949  0.971388
H    2.698621 -0.827424 -0.469418
H    2.698707  0.829336 -0.466064
H   -1.766849  2.153933  0.002254
H   -1.766601 -2.154073  0.002246
H   -3.004319 -0.000144  0.010057
8
MP2_polar: Axx=5.5390 Ayy=8.1989 Azz=8.4113 
O    0.671109  1.333881 -0.003940
O    1.649214 -0.740736 -0.005476
C    0.684592  0.078788 -0.000627
C   -0.682990 -0.663601  0.012160
H   -0.700669 -1.322957  0.894664
H   -0.707856 -1.317758 -0.873447
O   -1.821961  0.219237  0.018826
H   -2.587981 -0.349458 -0.165692
17
MP2_polar: Axx=7.1234 Ayy=7.5792 Azz=9.8623 
N    0.004980 -0.235603 -0.175890
C   -1.280636  0.555818 -0.081258
C    1.270277  0.544636  0.100484
C   -2.485598 -0.367658  0.121211
C    2.488405 -0.363203  0.040002
H    0.071253 -0.675979 -1.102926
H   -0.040087 -1.017654  0.492282
H   -1.339341  1.143833 -0.998515
H   -1.149147  1.245030  0.754212
H    1.302657  1.334291 -0.653286
H    1.139845  1.004714  1.080943
H   -3.281035 -0.120624 -0.583198
H   -2.229526 -1.415919 -0.062734
H   -2.877435 -0.291442  1.135685
H    2.425433 -1.076750 -0.786760
H    2.598371 -0.935521  0.964481
H    3.389468  0.237681 -0.091585
14
MP2_polar: Axx=10.1098 Ayy=15.9324 Azz=17.8622 
O   -1.225526 -1.725033  0.000695
O    3.749068 -0.631789 -0.000418
O    2.716983  1.404384  0.000704
O   -3.603694 -0.324592 -0.000205
O   -2.367110  1.604249 -0.000161
C    0.118091  0.273804 -0.000114
C    1.363635 -0.602478 -0.000167
C   -1.199813 -0.487690 -0.000317
C    2.738973  0.138182 -0.000366
C   -2.535439  0.348147 -0.000117
H    0.117437  0.959661 -0.855202
H    0.116926  0.957143  0.857149
H    1.347136 -1.277114  0.866386
H    1.348054 -1.277225 -0.866770
12
MP2_polar: Axx=9.3551 Ayy=13.9955 Azz=15.5772 
O   -2.931930 -0.863227  0.001693
O    2.931801  0.863371  0.001706
O   -2.191882  1.291920 -0.004949
O    2.192099 -1.291927 -0.004480
C   -0.565175 -0.511757  0.001273
C    0.565121  0.511599  0.002036
C   -2.027686  0.033378  0.002262
C    2.027688 -0.033372  0.001131
H   -0.456032 -1.180619  0.865711
H   -0.456837 -1.180579 -0.863375
H    0.456478  1.179497  0.867314
H    0.455995  1.181523 -0.861614
18
MP2_polar: Axx=8.0914 Ayy=14.0724 Azz=16.0136 
N    2.430082 -0.987520 -0.006473
C    1.144933 -0.232554  0.012938
C   -1.254903 -0.271484 -0.017861
C   -0.036912 -0.963456 -0.003996
C    1.199235  1.154895  0.012317
C   -1.223463  1.131553 -0.012876
C   -0.019631  1.836707  0.000476
C   -2.560549 -1.018541  0.010393
H   -0.029197 -2.053141 -0.009562
H    2.142292  1.697852  0.017585
H   -2.161214  1.681988 -0.022939
H   -0.024059  2.922778  0.003466
H    2.374555 -1.839283  0.569264
H    2.695789 -1.275156 -0.959530
H    3.201064 -0.417348  0.368666
H   -3.341996 -0.453931 -0.503058
H   -2.888693 -1.177708  1.042659
H   -2.471380 -1.996131 -0.469585
9
MP2_polar: Axx=10.4409 Ayy=10.7699 Azz=12.4989 
P   -0.519742 -0.054240 -0.007481
O    0.956231  0.827073  0.102538
O   -1.528877  1.096316 -0.144731
O   -0.361631 -0.939989 -1.258033
O   -0.606700 -0.841179  1.312594
C    2.129620  0.031334  0.008458
H    2.116388 -0.583560 -0.895621
H    2.236778 -0.632044  0.876354
H    2.993068  0.703438 -0.018203
20
MP2_polar: Axx=9.2069 Ayy=9.2410 Azz=10.3903 
N   -0.429241  0.000756 -0.007328
C    0.867705 -0.568552 -0.575481
C   -0.509299 -0.293348  1.469233
C   -1.597284 -0.654454 -0.688649
C   -0.499021  1.488942 -0.232151
C    2.167766 -0.018949 -0.016858
H    0.810185 -0.393499 -1.654267
H    0.804162 -1.647080 -0.406195
H   -0.798957 -1.336459  1.601827
H    0.442415 -0.076479  1.946222
H   -1.289373  0.333226  1.902371
H   -1.482357 -1.736396 -0.620421
H   -1.602471 -0.352208 -1.736248
H   -2.515183 -0.331119 -0.196720
H   -1.250518  1.911354  0.433843
H    0.460994  1.931318  0.023607
H   -0.732350  1.684009 -1.278904
H    2.304373  1.046991 -0.202341
H    2.971997 -0.540144 -0.544601
H    2.302569 -0.220638  1.046549
13
MP2_polar: Axx=16.0783 Ayy=16.7847 Azz=20.3285 
P    1.072309  0.392420  0.030061
P   -1.913476 -0.147363  0.000011
O    2.075558 -0.750775 -0.696855
O   -0.279261 -0.165988 -0.648820
O    1.174637  0.159959  1.525862
O    1.430437  1.766647 -0.513567
O   -2.048773 -1.531440  0.650338
O   -2.722639  0.028673 -1.293549
O   -1.956270  1.053367  0.954231
C    3.354293 -0.890275 -0.078987
H    3.303335 -1.551365  0.791785
H    4.024280 -1.339377 -0.817348
H    3.774618  0.073002  0.227295
12
MP2_polar: Axx=8.3341 Ayy=10.2836 Azz=11.1225 
O    1.735069 -0.819510  0.403789
O    1.143872  1.146731 -0.607122
N   -1.096009 -1.266251 -0.557232
C   -0.578933 -0.226257  0.380982
C   -1.428351  1.044404  0.347068
C    0.928400  0.073208  0.032209
H   -0.580220 -0.684150  1.377240
H   -2.491449  0.826311  0.168857
H   -1.042196  1.652472 -0.474944
H   -1.330304  1.633786  1.265610
H   -1.593593 -0.770698 -1.301188
H   -1.848398 -1.759862 -0.069842
14
MP2_polar: Axx=5.9016 Ayy=7.9951 Azz=8.1929 
O   -1.339831  1.072247 -0.259131
O   -1.500432 -1.181354  0.120627
N    1.206966  1.255094  0.044259
C    0.629504 -0.115849  0.399620
C    1.410887 -1.223202 -0.287973
C   -0.856855 -0.163415  0.044466
H    0.693124 -0.207629  1.487781
H    0.467225  1.849049 -0.365462
H    1.969996  1.171051 -0.640624
H    1.583421  1.745645  0.865208
H    0.942733 -2.176616 -0.037774
H    1.379874 -1.108642 -1.375264
H    2.448909 -1.248111  0.052722
H   -2.313156  1.077252 -0.125043
13
MP2_polar: Axx=8.7366 Ayy=10.7516 Azz=11.3199 
O    1.697003  0.785414 -0.464085
O    1.163076 -1.145806  0.641328
C   -0.594146  0.160042 -0.382607
C   -1.469401 -1.091566 -0.286701
C   -1.110614  1.331049  0.485873
C    0.911440 -0.109287 -0.039203
H   -0.598134  0.509525 -1.423153
H   -1.043365 -1.742882  0.481346
H   -2.521966 -0.866198 -0.072988
H   -1.434469 -1.657669 -1.225617
H   -2.101302  1.121511  0.909450
H   -1.168110  2.265263 -0.080859
H   -0.436950  1.512155  1.329708
11
MP2_polar: Axx=7.7833 Ayy=9.1379 Azz=10.1533 
O   -0.949425 -1.306845 -0.577688
O    1.770909 -0.614333  0.490888
O    0.978572  1.211921 -0.638598
C   -0.589318 -0.286132  0.400849
C   -1.612892  0.832428  0.318449
C    0.874597  0.173165  0.078716
H   -0.608094 -0.783043  1.378370
H   -1.303890  1.510068 -0.479466
H   -1.622284  1.412588  1.250799
H   -2.617486  0.433475  0.143898
H   -0.283025 -1.215793 -1.278496
11
MP2_polar: Axx=7.7728 Ayy=9.1173 Azz=10.1722 
O    0.930579 -1.319370 -0.574552
O   -1.766503 -0.612183  0.491219
O   -0.983370  1.222622 -0.630112
C    0.592519 -0.285292  0.398740
C    1.627578  0.830288  0.308102
C   -0.873591  0.179055  0.078639
H    0.608566 -0.778992  1.377449
H    1.201601  1.635812 -0.293971
H    1.844827  1.241463  1.303058
H    2.561361  0.456764 -0.121813
H    0.258963 -1.227899 -1.270047
13
MP2_polar: Axx=9.6268 Ayy=10.2113 Azz=12.1650 
P   -0.844625  0.040804  0.144683
O    0.615722 -0.249677 -0.628859
O   -1.715245 -0.822317 -0.997663
O   -1.198646  1.503409  0.032572
O   -0.857579 -0.669838  1.473715
C    1.685460  0.546409 -0.129956
C    2.914173 -0.341331  0.043618
H    1.890974  1.344809 -0.856720
H    1.422831  1.035097  0.814531
H    3.843940  0.209210 -0.141855
H    2.860105 -1.136957 -0.704159
H    2.941935 -0.807157  1.031208
H   -2.642235 -0.580148 -0.833335
12
MP2_polar: Axx=12.2564 Ayy=12.5820 Azz=15.0532 
P   -0.982806 -0.001864 -0.005156
O    0.649586  0.546485  0.111343
O   -1.676650  1.249568 -0.568706
O   -0.927659 -1.199311 -0.971088
O   -1.376451 -0.365836  1.439782
C    1.668264 -0.433073 -0.020714
C    3.024639  0.263490  0.015791
H    1.608513 -1.152441  0.812334
H    1.538268 -1.008904 -0.942968
H    3.800796 -0.390072  0.426191
H    3.331794  0.626458 -0.968077
H    2.954693  1.123170  0.688750
14
MP2_polar: Axx=9.2205 Ayy=11.6245 Azz=16.0155 
O    2.708447 -0.811537  0.279356
O    1.881249  1.299476 -0.065670
C   -2.094911 -0.365045 -0.488582
C   -3.066345  0.211979  0.556772
C   -0.700850  0.170051 -0.335439
C    0.398777 -0.559586 -0.093828
C    1.802322  0.042745  0.053664
H   -2.471758 -0.109094 -1.490509
H   -2.086337 -1.460490 -0.433335
H   -3.096741 -0.417465  1.451472
H   -2.769903  1.222041  0.851413
H   -4.092720  0.258166  0.172084
H   -0.560707  1.248486 -0.424207
H    0.326646 -1.646021  0.008067
14
MP2_polar: Axx=9.2205 Ayy=11.6245 Azz=16.0155 
O    2.708447 -0.811537  0.279356
O    1.881249  1.299476 -0.065670
C   -2.094911 -0.365045 -0.488582
C   -3.066345  0.211979  0.556772
C   -0.700850  0.170051 -0.335439
C    0.398777 -0.559586 -0.093828
C    1.802322  0.042745  0.053664
H   -2.471758 -0.109094 -1.490509
H   -2.086337 -1.460490 -0.433335
H   -3.096741 -0.417465  1.451472
H   -2.769903  1.222041  0.851413
H   -4.092720  0.258166  0.172084
H   -0.560707  1.248486 -0.424207
H    0.326646 -1.646021  0.008067
15
MP2_polar: Axx=8.9862 Ayy=12.9091 Azz=14.7914 
O   -0.839253  1.305088 -0.000695
O    2.935124 -0.878848  0.000332
O    2.076362  1.245453  0.000207
C   -1.968256 -0.797169  0.000164
C   -0.704881  0.084320  0.000628
C    0.593045 -0.688166  0.000449
C   -3.259152  0.009996  0.000076
C    2.019345 -0.006468  0.000730
H   -1.918649 -1.455010 -0.878194
H   -1.920239 -1.467864  0.867879
H    0.563210 -1.364323 -0.868118
H    0.562715 -1.376691  0.858836
H   -3.245790  0.743223 -0.808129
H   -4.136758 -0.635915 -0.116914
H   -3.362961  0.567959  0.933606
17
MP2_polar: Axx=11.0003 Ayy=13.1329 Azz=18.7577 
O    3.391454 -0.538304 -0.191769
O    2.089707  1.337624  0.000719
C   -2.578354  0.604893 -0.151317
C   -1.310208 -0.168538 -0.365983
C   -0.212496 -0.072811  0.401652
C    1.058035 -0.829018  0.209774
C   -3.786017 -0.308513  0.088436
C    2.314809  0.095740 -0.028906
H   -2.451106  1.290062  0.695286
H   -2.784670  1.234772 -1.029739
H   -1.310777 -0.865093 -1.208562
H   -0.213465  0.649311  1.219234
H    1.278608 -1.441256  1.095918
H    0.972215 -1.528765 -0.632271
H   -3.798961 -1.127646 -0.637985
H   -3.719032 -0.769124  1.079465
H   -4.736711  0.232658  0.025120
19
MP2_polar: Axx=12.9818 Ayy=13.3109 Azz=17.2401 
P   -0.007527  0.613831  0.016621
O   -1.181125 -0.587916  0.060805
O    1.235857 -0.466631 -0.309180
O    0.212521  1.182474  1.395973
O   -0.277363  1.485836 -1.182043
C   -2.483996 -0.143756 -0.313627
C    2.487927 -0.129414  0.283074
C   -3.488576 -1.149163  0.231815
C    3.511379 -1.133709 -0.221141
H   -2.687521  0.844468  0.117682
H   -2.556769 -0.038542 -1.402330
H    2.788565  0.884462 -0.015993
H    2.411594 -0.135002  1.375176
H   -3.580469 -2.022075 -0.421824
H   -4.485865 -0.697937  0.303053
H   -3.176254 -1.468503  1.227765
H    3.404355 -2.095537  0.288797
H    4.530351 -0.774683 -0.030657
H    3.385388 -1.277963 -1.296152
17
MP2_polar: Axx=9.7769 Ayy=13.6882 Azz=17.7333 
O    1.599434 -1.492166  0.000205
O   -3.580657 -0.450227 -0.000367
O   -2.246139  1.413138  0.000481
N   -0.048141  0.100250  0.000374
C    2.248109  0.842607 -0.000557
C    1.229929 -0.303082  0.000459
C   -1.219402 -0.752510 -0.000132
C    3.682684  0.333757 -0.000049
C   -2.488114  0.165269 -0.000029
H    2.063549  1.472903 -0.879535
H    2.062983  1.480428  0.872639
H   -1.234682 -1.403928 -0.881755
H   -1.235104 -1.404468  0.881093
H   -0.347900  1.081465  0.001044
H    3.854241 -0.321691 -0.855953
H    4.393744  1.166047 -0.039349
H    3.879811 -0.254707  0.898504
20
MP2_polar: Axx=12.6600 Ayy=15.0835 Azz=18.6971 
O   -1.607710  1.225202 -0.822985
O    3.116455 -0.442096 -0.924130
O    1.710484 -1.713342  0.363298
N   -0.115619  0.083171  0.510653
C    1.122466  0.575438 -0.088356
C    1.801920  1.610293  0.803068
C   -2.410246 -0.678026  0.437106
C   -1.333647  0.301556 -0.038300
C    2.083227 -0.660243 -0.245432
C   -3.765883 -0.403294 -0.199365
H    0.906469  0.999356 -1.073086
H    0.094295 -0.867381  0.851795
H    1.252668  2.558963  0.815188
H    2.810557  1.789802  0.420769
H    1.873791  1.223284  1.824108
H   -2.471782 -0.635032  1.531096
H   -2.070826 -1.692979  0.193372
H   -4.196548  0.524481  0.184962
H   -3.662814 -0.298155 -1.280203
H   -4.467325 -1.216991  0.015628
5
MP2_polar: Axx=8.8628 Ayy=8.8628 Azz=9.9811 
S    0.708216 -0.000002  0.000000
C   -1.118025  0.000007  0.000003
H   -1.541074  1.014526 -0.051640
H   -1.541117 -0.551988 -0.852772
H   -1.541121 -0.462551  0.904397
8
MP2_polar: Axx=10.9064 Ayy=11.2882 Azz=14.0367 
S    1.192426 -0.154203 -0.000000
C   -0.445499  0.645004  0.000007
C   -1.602154 -0.355973  0.000004
H   -0.567220  1.299180  0.877406
H   -0.567246  1.299140 -0.877451
H   -2.589250  0.136887 -0.000192
H   -1.534722 -1.000957  0.881313
H   -1.534458 -1.001183 -0.881147
11
MP2_polar: Axx=12.7065 Ayy=14.4556 Azz=15.5293 
S    1.418701 -0.008574 -0.059692
C   -0.345794 -0.000443  0.398417
C   -1.052134  1.256738 -0.116873
C   -1.079041 -1.243876 -0.114352
H   -0.440329 -0.001456  1.496536
H   -0.875270  1.350411 -1.192974
H   -0.629212  2.148482  0.356364
H   -2.138181  1.240352  0.073850
H   -0.521888 -2.146132  0.151533
H   -1.125388 -1.211701 -1.209417
H   -2.107136 -1.317287  0.276020
14
MP2_polar: Axx=5.8470 Ayy=6.7560 Azz=6.7727 
N   -0.151156  1.371829  0.090856
C    0.005129 -0.069175 -0.385728
C   -1.186122 -0.873110  0.101278
C    1.347064 -0.595694  0.104129
H    0.004967  0.009620 -1.476114
H   -0.998874  1.812730 -0.292118
H    0.649227  1.953161 -0.191505
H   -0.216684  1.413928  1.117125
H   -2.127220 -0.521505 -0.331013
H   -1.254807 -0.853959  1.193013
H   -1.054984 -1.913042 -0.205966
H    1.279994 -0.962053  1.131910
H    2.153548  0.138029  0.015382
H    1.626500 -1.451836 -0.514780
27
MP2_polar: Axx=13.5035 Ayy=18.5298 Azz=24.2940 
N    3.006393 -0.307894 -0.639328
N    0.596555 -0.005883 -0.105895
C    2.704129 -0.993554  0.662882
C    2.655703  1.156480 -0.553119
C    1.171373 -1.008711  0.814094
C    1.282496  1.264457  0.130515
C   -0.845536  0.010827 -0.030309
C   -1.525604 -1.157317 -0.406472
C   -1.577648  1.161777  0.280727
C   -2.917427 -1.190362 -0.407078
C   -2.975395  1.121261  0.269423
C   -3.650297 -0.047517 -0.075820
H    2.394524 -0.718656 -1.359089
H    3.985077 -0.438317 -0.925006
H    3.135448 -1.996133  0.638134
H    3.206722 -0.414655  1.440209
H    3.453840  1.656164  0.000739
H    2.633758  1.534531 -1.576922
H    0.780203 -1.992586  0.553036
H    0.904782 -0.806035  1.862600
H    0.732855  2.077521 -0.344619
H    1.381868  1.504754  1.200869
H   -0.970591 -2.036927 -0.723420
H   -1.090906  2.079093  0.596912
H   -3.430003 -2.103758 -0.696815
H   -3.532816  2.018636  0.524389
H   -4.736161 -0.071241 -0.083514
27
MP2_polar: Axx=12.6128 Ayy=13.3788 Azz=15.9506 
N   -0.476405  0.134467  0.058239
C    0.198562 -0.865898 -0.857498
C    0.414113  1.390906  0.100253
C    1.528379 -1.366079 -0.300513
C    1.884863  1.120652 -0.225716
C   -1.827987  0.533042 -0.547883
C    2.375847 -0.225436  0.297591
C   -0.631927 -0.417615  1.439380
C   -3.044339 -0.254380 -0.087367
H   -0.509403 -1.685098 -1.015873
H    0.332247 -0.346386 -1.808936
H    0.284438  1.813660  1.099757
H   -0.003624  2.094514 -0.622784
H    1.362832 -2.162625  0.430156
H    2.052551 -1.833948 -1.140187
H    2.034945  1.168168 -1.308963
H    2.467276  1.944148  0.199338
H   -1.698225  0.503836 -1.631330
H   -1.966945  1.576167 -0.252629
H    3.428713 -0.358941  0.036929
H    2.337761 -0.237102  1.391811
H    0.351905 -0.595168  1.863215
H   -1.174079  0.307165  2.046883
H   -1.180176 -1.357432  1.390875
H   -3.131136 -1.230249 -0.571051
H   -3.123225 -0.351941  0.993163
H   -3.916090  0.318809 -0.417536
7
MP2_polar: Axx=8.1528 Ayy=10.7158 Azz=13.1003 
S    1.343362 -0.127587  0.000021
O   -0.900880  1.338903  0.000063
C   -1.279587 -1.008824 -0.000015
C   -0.352341  0.219585 -0.000210
H   -1.084266 -1.629518 -0.879365
H   -2.323887 -0.677912 -0.001956
H   -1.087035 -1.626972  0.881830
6
MP2_polar: Axx=5.1949 Ayy=8.3241 Azz=8.8165 
N   -0.334515  1.127564 -0.000116
N   -0.335098 -1.127346  0.000082
N    0.947543  0.673927  0.000173
N    0.947200 -0.674422 -0.000158
C   -1.070105  0.000269  0.000015
H   -2.155281  0.000326  0.000039
8
MP2_polar: Axx=5.7629 Ayy=7.5932 Azz=9.8056 
O   -0.622542 -0.697141  0.001280
O    0.311053  1.416974  0.000957
O   -1.974596 -0.145835 -0.000442
C    1.689149 -0.571248 -0.000247
C    0.352205  0.184580 -0.002775
H    1.780511 -1.185756  0.900505
H    1.754625 -1.239241 -0.864067
H    2.505418  0.153023 -0.032673
15
MP2_polar: Axx=6.5857 Ayy=7.6598 Azz=7.7911 
N    1.232477  0.000473  0.000199
C    0.332820 -1.231237 -0.145929
C    0.331787  1.231628  0.145496
C   -1.043576 -0.720429  0.257235
C   -1.044321  0.719475 -0.257039
H    1.851641  0.093668 -0.813510
H    1.850816 -0.092289  0.814593
H    0.367354 -1.526137 -1.195836
H    0.736656 -2.035688  0.469716
H    0.366355  1.527404  1.195177
H    0.734868  2.035888 -0.470881
H   -1.832811 -1.333722 -0.182845
H   -1.163653 -0.745783  1.344771
H   -1.833922  1.332071  0.183357
H   -1.164906  0.744654 -1.344519
21
MP2_polar: Axx=9.3895 Ayy=10.4730 Azz=12.4529 
N    0.291846 -0.223467 -0.307679
C   -0.326677  1.170548 -0.139679
C   -0.800443 -1.228071  0.028027
C   -1.752000  0.916129  0.346228
C   -2.086788 -0.463109 -0.222361
C    1.556393 -0.441675  0.487472
C    2.745333  0.240844 -0.167711
H    0.531649 -0.346667 -1.299407
H    0.293562  1.740577  0.553231
H   -0.303612  1.657597 -1.116353
H   -0.646536 -2.126531 -0.573180
H   -0.683240 -1.475950  1.086176
H   -1.787261  0.894466  1.439481
H   -2.429762  1.701877  0.005573
H   -2.937638 -0.936733  0.272480
H   -2.307417 -0.408140 -1.293631
H    1.346025 -0.057248  1.488221
H    1.703912 -1.522088  0.558654
H    3.543955  0.364967  0.566720
H    3.127569 -0.336709 -1.011895
H    2.490973  1.246852 -0.514171
4
MP2_polar: Axx=6.1437 Ayy=9.1697 Azz=9.1738 
O    0.536007  1.191095 -0.000094
O   -1.299860 -0.131545 -0.000094
O    0.764008 -1.059446 -0.000094
C   -0.000206 -0.000139  0.000375
5
MP2_polar: Axx=3.8023 Ayy=5.5932 Azz=6.2249 
O    0.975465 -0.834293 -0.000155
O   -1.262544 -0.490582  0.000047
O    0.190009  1.290332 -0.000064
C   -0.155404  0.078499  0.000051
H    1.708985 -0.194651  0.001069
17
MP2_polar: Axx=7.8782 Ayy=7.8802 Azz=7.8867 
N    0.000340  0.002205 -0.003304
C    0.726959 -1.061493 -0.776526
C   -0.415650 -0.556266  1.327852
C    0.910394  1.179710  0.204905
C   -1.221892  0.439328 -0.756631
H    0.937703 -0.684649 -1.777754
H    0.082703 -1.938644 -0.847845
H    1.648126 -1.312935 -0.252769
H   -0.932981  0.221896  1.889113
H    0.477735 -0.871737  1.868162
H   -1.075037 -1.407613  1.161907
H    0.458412  1.848465  0.937459
H    1.862656  0.817599  0.593556
H    1.063084  1.685070 -0.748289
H   -0.919995  0.786274 -1.744777
H   -1.705769  1.243962 -0.202766
H   -1.897878 -0.410804 -0.850472
18
MP2_polar: Axx=7.5404 Ayy=8.6294 Azz=10.1624 
O   -2.623395 -0.358852  0.211725
N    1.007477 -0.009013 -0.316960
C   -0.357185 -0.539638  0.045704
C    1.302111  1.368969  0.199190
C    2.079948 -0.981280  0.088545
C   -1.517657  0.409993 -0.221501
H    1.035560  0.050914 -1.344350
H   -0.507540 -1.461553 -0.520256
H   -0.333181 -0.783466  1.111151
H    1.358183  1.322786  1.287359
H    0.531164  2.062111 -0.126560
H    2.268892  1.677175 -0.201224
H    3.028883 -0.653142 -0.335400
H    1.818690 -1.968080 -0.292866
H    2.130832 -0.998228  1.176876
H   -1.423085  1.336368  0.357504
H   -1.572364  0.668626 -1.289807
H   -3.444510  0.132129  0.030859
14
MP2_polar: Axx=13.7858 Ayy=14.3442 Azz=17.3339 
S   -1.980032 -0.014103 -0.064133
C    0.843553  0.000266 -0.354203
C   -0.344476 -0.753066  0.266904
C    2.162139 -0.706866 -0.012828
C    0.885988  1.462922  0.131506
H    0.710446 -0.012858 -1.442858
H   -0.146963 -0.796382  1.351930
H   -0.298263 -1.794827 -0.089640
H    2.223831 -0.885821  1.067482
H    2.217452 -1.688989 -0.498766
H    3.041410 -0.128118 -0.322131
H    1.875468  1.734102  0.525009
H    0.634204  2.163888 -0.667978
H    0.139706  1.615117  0.914799
16
MP2_polar: Axx=9.3656 Ayy=12.9983 Azz=16.1910 
O    2.316291 -0.772855 -0.000363
O    1.654600  1.395098  0.000109
O   -3.549343  0.701929 -0.000062
O   -2.548989 -1.359360  0.000801
C   -0.023502 -0.393083  0.000024
C   -1.168765  0.605436 -0.000543
C    1.350118  0.211937 -0.000542
C   -2.571434 -0.093105  0.000206
C    3.657020 -0.272325 -0.000841
H   -0.109618 -1.064957 -0.860181
H   -0.107564 -1.061957  0.862712
H   -1.105799  1.265667  0.872419
H   -1.106084  1.264799 -0.874206
H    3.779964  0.516709 -0.744856
H    3.917214  0.137578  0.979523
H    4.290793 -1.129493 -0.229116
13
MP2_polar: Axx=11.2876 Ayy=14.0970 Azz=16.8176 
S    1.809882  0.439582  0.226555
O    0.442118 -1.771596 -0.325655
C   -0.978394  0.117593 -0.380523
C   -1.050724  1.641760 -0.218148
C   -1.973640 -0.622736  0.535687
C    0.440314 -0.532986 -0.166289
H   -1.209845 -0.152944 -1.418979
H   -0.036927  2.040510 -0.150040
H   -1.584585  2.118961 -1.049149
H   -1.572460  1.918236  0.705377
H   -2.203213 -0.025802  1.424741
H   -2.936056 -0.781829  0.029628
H   -1.577309 -1.599457  0.814426
21
MP2_polar: Axx=9.5664 Ayy=11.0371 Azz=12.3967 
N   -2.395737 -0.000071  0.071565
C   -0.928114  0.000198 -0.347801
C   -0.266726 -1.266645  0.171709
C   -0.266698  1.266885  0.171779
C    1.217812 -1.261082 -0.213664
C    1.217847  1.260979 -0.213565
C    1.915183 -0.000053  0.295317
H   -0.950151  0.000129 -1.443306
H   -0.356854 -1.298477  1.266736
H   -0.764407 -2.158352 -0.230131
H   -0.357293  1.298991  1.266731
H   -0.764143  2.158511 -0.230493
H    1.308302 -1.322468 -1.305431
H    1.692922 -2.159459  0.191395
H    1.693116  2.159417  0.190997
H    1.307986  1.321981 -1.305324
H    2.962392 -0.000004 -0.022619
H    1.920202 -0.000144  1.392963
H   -2.892129  0.832187 -0.275575
H   -2.474222 -0.001503  1.097498
H   -2.891390 -0.832010 -0.277045
17
MP2_polar: Axx=11.9374 Ayy=12.9825 Azz=15.0637 
S   -1.227050 -0.022411  0.019712
O   -2.166140 -0.879299 -0.749869
O   -1.325765 -0.141779  1.502037
O   -1.157895  1.380919 -0.473610
C    1.599979 -0.084696  0.296722
C    0.390177 -0.748721 -0.361607
C    1.755560  1.392872 -0.095881
C    2.856874 -0.879888 -0.068362
H    1.454968 -0.143770  1.381667
H    0.496754 -0.716756 -1.453180
H    0.317365 -1.798544 -0.058543
H    1.240116  2.041469  0.613092
H    2.818113  1.674345 -0.088820
H    1.342711  1.589906 -1.086240
H    2.836782 -1.879331  0.381023
H    2.946607 -0.986273 -1.154907
H    3.762246 -0.378602  0.296831
15
MP2_polar: Axx=13.5646 Ayy=14.9432 Azz=16.8779 
P    1.212399 -0.001362  0.036270
O   -0.343654 -0.037107 -0.707495
O    1.104155 -0.961472  1.236330
O    2.091678 -0.494066 -1.123697
O    1.430437  1.472798  0.433858
C   -1.473106 -0.001313  0.155319
C   -2.277572  1.283496 -0.070423
C   -2.307615 -1.260484 -0.046953
H   -1.130118 -0.012483  1.196228
H   -1.907001  2.094709  0.562787
H   -2.223070  1.580488 -1.120955
H   -3.332314  1.142031  0.192571
H   -2.513761 -1.407360 -1.113273
H   -3.252790 -1.219259  0.502840
H   -1.738110 -2.129122  0.296119
21
MP2_polar: Axx=9.5057 Ayy=17.0542 Azz=17.5944 
N    2.812970 -0.007262 -0.001219
C    1.323617 -0.006234  0.002145
C   -0.721598  1.233744  0.006915
C   -0.734810 -1.226599 -0.018195
C    0.667374 -1.228037 -0.009444
C    0.677604  1.224430  0.013107
C   -1.399534  0.005254 -0.005919
C   -1.487071  2.529824 -0.003331
C   -1.500776 -2.522110  0.010972
H    1.213296 -2.171229 -0.018980
H    1.233702  2.160994  0.019353
H   -2.488565  0.011913 -0.011099
H    3.197335  0.352832 -0.886625
H    3.195029  0.573762  0.758266
H    3.182884 -0.959409  0.127344
H   -0.829944  3.382943  0.181177
H   -1.975477  2.681526 -0.970626
H   -2.265036  2.526416  0.764622
H   -0.945328 -3.323444 -0.482962
H   -2.464137 -2.415366 -0.492471
H   -1.693389 -2.831730  1.043050
21
MP2_polar: Axx=14.1924 Ayy=22.0217 Azz=24.1260 
S    2.076500  0.000691  0.005116
O    2.394920 -0.037716  1.456171
O    2.445526 -1.233207 -0.737518
O    2.446495  1.271215 -0.672577
C    0.269708  0.001054 -0.040222
C   -1.827047 -1.220593  0.012130
C   -1.828373  1.220211  0.013812
C   -0.430289  1.208519 -0.025732
C   -0.428848 -1.207185 -0.027586
C   -2.514006 -0.000754  0.033660
C   -2.579264 -2.528061 -0.008234
C   -2.583474  2.525944 -0.009354
H    0.139265  2.135466 -0.056757
H    0.140857 -2.134039 -0.061738
H   -3.605306 -0.001413  0.069670
H   -3.593215 -2.406475  0.387667
H   -2.664959 -2.925586 -1.026449
H   -2.066824 -3.283337  0.595781
H   -3.582329  2.412516  0.425305
H   -2.706614  2.899274 -1.032860
H   -2.050839  3.295391  0.558063
20
MP2_polar: Axx=11.8548 Ayy=20.7522 Azz=23.0387 
O    3.551148  0.609880 -0.005801
O    2.478278 -1.401357  0.020491
C   -0.183340  0.086107 -0.006808
C   -1.333656  0.910993  0.002441
C    1.203823  0.705311 -0.009846
C   -0.369358 -1.307397 -0.009599
C   -2.609404  0.329287  0.004221
C   -1.255836  2.421939  0.004979
C   -1.646125 -1.870169 -0.006136
C   -2.778507 -1.054218  0.002693
C    2.538445 -0.138434  0.001618
H    1.294136  1.381500  0.850915
H    1.298230  1.363328 -0.884253
H    0.535388 -1.910054 -0.013847
H   -3.485757  0.980189  0.010046
H   -0.227907  2.781109 -0.040301
H   -1.712861  2.834841  0.912520
H   -1.799181  2.840520 -0.850342
H   -1.754826 -2.954374 -0.008396
H   -3.778884 -1.485755  0.004750
11
MP2_polar: Axx=7.2341 Ayy=8.9931 Azz=12.1890 
O   -1.205765 -0.671743 -0.008402
O   -0.081156  1.346224  0.027714
O   -2.500460  0.001583 -0.029988
C    1.111843 -0.761204  0.043607
C    2.383131  0.072275 -0.044913
C   -0.154971  0.114074  0.025048
H    1.052650 -1.467194 -0.793164
H    1.107075 -1.372798  0.953671
H    3.268915 -0.562483 -0.167952
H    2.323684  0.753054 -0.896960
H    2.506705  0.690039  0.847354
18
MP2_polar: Axx=8.0108 Ayy=9.1365 Azz=10.2847 
N   -1.468439 -0.725628  0.016529
C    0.778968  0.025076 -0.374970
C   -0.014496 -1.177388  0.121435
C   -0.028823  1.195181  0.192761
C   -1.477895  0.807710 -0.070487
C    2.238771 -0.012069  0.059191
H    0.726299  0.054489 -1.471557
H    0.185624 -1.373631  1.177674
H    0.114585 -2.097870 -0.450609
H    0.215169  2.149322 -0.280812
H    0.158666  1.294881  1.267671
H   -1.913703 -1.132201 -0.814386
H   -2.016181 -1.056463  0.819691
H   -2.203456  1.192787  0.646804
H   -1.798972  1.066284 -1.080486
H    2.750260 -0.889728 -0.344326
H    2.319054 -0.034805  1.150224
H    2.762578  0.875268 -0.303170
24
MP2_polar: Axx=10.7589 Ayy=12.8006 Azz=14.2022 
N    1.422476  0.006894 -0.339961
C   -0.819560  0.688108  0.343104
C   -0.837652 -0.696555 -0.318478
C    0.597763  1.224753  0.085194
C    0.569542 -1.205042 -0.047363
C   -1.918740  1.644827 -0.112775
C   -1.930371 -1.637031  0.178628
C    2.820299 -0.032410  0.199698
H   -0.917063  0.529642  1.425161
H   -0.947944 -0.568043 -1.406430
H    1.499538  0.059717 -1.363018
H    0.648606  1.952609 -0.728754
H    1.064760  1.653593  0.974025
H    0.903214 -2.039262 -0.669543
H    0.711985 -1.455541  1.008532
H   -2.073560  1.574982 -1.194061
H   -1.691180  2.680572  0.152009
H   -2.865841  1.384731  0.366056
H   -2.891726 -1.380920 -0.271500
H   -2.021153 -1.596502  1.267710
H   -1.715267 -2.670561 -0.109363
H    3.438983 -0.643104 -0.457764
H    3.215787  0.983645  0.206932
H    2.795845 -0.433708  1.211686
