 14
#Generated by chemFileConvert.py
  C       -0.6072990     0.2987600    -0.0000100
  C        0.6072990    -0.2987600     0.0000020
  C       -1.8649630    -0.4253540     0.0000010
  C        1.8649630     0.4253540    -0.0000070
  C       -3.0721420     0.1700200    -0.0000080
  C        3.0721410    -0.1700200     0.0000190
  H       -0.6626030     1.3889350    -0.0000290
  H        0.6626030    -1.3889340     0.0000200
  H       -1.8061510    -1.5140080     0.0000180
  H        1.8061510     1.5140080    -0.0000360
  H       -3.9915710    -0.4054530     0.0000010
  H       -3.1699730     1.2522670    -0.0000250
  H        3.9915700     0.4054520     0.0000140
  H        3.1699720    -1.2522680     0.0000490
