 15
#Generated by chemFileConvert.py
  O        0.0000020    -0.2691450    -0.0000020
  C        1.1785260     0.5252810     0.0000050
  C       -1.1785320     0.5252840     0.0000070
  C        2.3664120    -0.4133680    -0.0000070
  C       -2.3664110    -0.4133700    -0.0000030
  H        1.1947970     1.1780560    -0.8871580
  H        1.1948000     1.1780360     0.8871820
  H       -1.1947990     1.1780360     0.8871840
  H       -1.1947990     1.1780550    -0.8871570
  H        3.3033530     0.1510230    -0.0000020
  H        2.3404690    -1.0510140     0.8861510
  H        2.3404660    -1.0509930    -0.8861810
  H       -3.3033580     0.1510100     0.0000040
  H       -2.3404590    -1.0509950    -0.8861760
  H       -2.3404580    -1.0510150     0.8861560
