 13
#Generated by chemFileConvert.py
  O       -0.3919860     1.5294040    -0.0000050
  O        2.1568610     0.7396830     0.0000040
  O        1.4818540    -1.4327810     0.0000010
  C       -1.2904460    -0.7184520    -0.0000070
  C       -2.6798770    -0.0990580     0.0000080
  C       -0.1998110     0.3200430    -0.0000030
  C        1.2307160    -0.2376360     0.0000010
  H       -1.1331960    -1.3695760     0.8689140
  H       -1.1332070    -1.3695530    -0.8689480
  H       -2.8259870     0.5289990     0.8811930
  H       -2.8259930     0.5290290    -0.8811540
  H       -3.4430160    -0.8810440    -0.0000020
  H        3.0240790     0.2823190     0.0000050
