 15
#Generated by chemFileConvert.py
 Cl        1.4875760    -0.8585340    -1.4502940
 Cl        1.6673240     1.6297210    -0.0000070
 Cl        1.4875730    -0.8585200     1.4503030
  C       -0.5967930     0.0636340    -0.0000010
  C       -1.2815000    -1.1610580    -0.0000010
  C       -1.3211830     1.2579990    -0.0000020
  C        0.9157560     0.0178650    -0.0000010
  C       -2.6727010    -1.1855470     0.0000010
  C       -2.7178890     1.2245560     0.0000000
  C       -3.3986470     0.0087400    -0.0000010
  H       -0.7254190    -2.0945270     0.0000000
  H       -0.8108600     2.2139340    -0.0000010
  H       -3.1911200    -2.1409440     0.0000000
  H       -3.2714520     2.1600600    -0.0000020
  H       -4.4854430    -0.0109760     0.0000010
