 19
#Generated by chemFileConvert.py
  C       -2.6260070    -1.3181640     0.0000030
  C       -0.1785920    -0.3910100    -0.0000140
  C       -1.6028860    -0.2271800    -0.0000070
  C        0.4037990     0.9065080    -0.0000120
  C       -1.8343130     1.1308630     0.0000070
  C        2.0432640    -1.3188820     0.0000040
  C        2.5978420    -0.0201300     0.0000040
  C        0.6688530    -1.5149630     0.0000000
  C        1.7894440     1.1098670     0.0000020
  N       -0.6328500     1.8116730     0.0000060
  H        2.7093900    -2.1785170     0.0000140
  H        3.6789570     0.0979150     0.0000120
  H        0.2538510    -2.5213940    -0.0000090
  H        2.2194160     2.1097700    -0.0000210
  H       -3.6376970    -0.9014040    -0.0000240
  H       -2.5280300    -1.9591080     0.8829250
  H       -2.7737400     1.6710680     0.0000050
  H       -0.5326180     2.8176610     0.0000030
  H       -2.5279980    -1.9591520    -0.8828820
