 20
#Generated by chemFileConvert.py
  O       -0.8844740     0.2512200    -0.2589860
  O        0.2594420    -1.5357810     0.5540110
  C        1.4751410     0.3499910    -0.3991000
  C        1.6489360     1.5420820     0.5503600
  C        2.7076510    -0.5454760    -0.4239080
  C        0.2527860    -0.4396860     0.0153880
  C       -2.1066380    -0.4073920     0.1545600
  C       -3.2437300     0.5134160    -0.2249800
  H        1.2747850     0.7394360    -1.4046030
  H        2.5199720     2.1341380     0.2549160
  H        1.8085970     1.1898350     1.5745190
  H        0.7675450     2.1869880     0.5363060
  H        3.5809030     0.0268420    -0.7502520
  H        2.5706130    -1.3892510    -1.1045820
  H        2.9042310    -0.9491700     0.5720060
  H       -2.1727950    -1.3769310    -0.3467220
  H       -2.0631380    -0.5911830     1.2316620
  H       -4.1987120     0.0656950     0.0643780
  H       -3.1432900     1.4757990     0.2814060
  H       -3.2533220     0.6866720    -1.3031500
