  6
#Generated by chemFileConvert.py
  O        1.7328920     0.1673070    -0.0000030
  O       -1.7328920    -0.1673080    -0.0000030
  C        0.6456230    -0.3954040     0.0000020
  C       -0.6456240     0.3954050     0.0000040
  H        0.5271880    -1.4941600     0.0000070
  H       -0.5271910     1.4941610     0.0000050
