 15
#Generated by chemFileConvert.py
  C       -2.4205580     0.0000000     0.0118250
  C        1.9026740    -0.0000010     0.0093850
  C        1.1996440    -1.2062980     0.0018670
  C        1.1996450     1.2062970     0.0018670
  C       -0.1961960    -1.2029630    -0.0082190
  C       -0.1961960     1.2029630    -0.0082190
  C       -0.9136430     0.0000010    -0.0165280
  H        2.9899450     0.0000000     0.0144850
  H        1.7382350    -2.1512280     0.0030590
  H        1.7382370     2.1512270     0.0030580
  H       -0.7371310    -2.1480750    -0.0183270
  H       -0.7371290     2.1480760    -0.0183270
  H       -2.8237650    -0.8852380    -0.4882860
  H       -2.8237650     0.8852570    -0.4882510
  H       -2.7968510    -0.0000200     1.0407090
