 16
#Generated by chemFileConvert.py
  O        2.2963030    -1.1646890    -0.3757460
  N        2.3923280     1.0164480     0.2994170
  C        0.2207310    -0.0269520    -0.0211670
  C       -0.4523230     1.1907380    -0.1883680
  C       -0.5090170    -1.2093150     0.1506230
  C       -1.8475330     1.2224820    -0.1660350
  C       -1.9015700    -1.1704770     0.1807190
  C       -2.5738810     0.0455010     0.0269260
  C        1.7134710    -0.1319220    -0.0440620
  H        0.1072720     2.1036640    -0.3785230
  H        0.0332720    -2.1453590     0.2524960
  H       -2.3684780     2.1664290    -0.3073730
  H       -2.4655310    -2.0892580     0.3223660
  H       -3.6606990     0.0738880     0.0465090
  H        1.9473050     1.6788240     0.9202200
  H        3.3908630     0.8938600     0.4225490
