 12
#Generated by chemFileConvert.py
 Cl        2.2528770    -0.0000010    -0.0000490
  C        0.5103710     0.0000010    -0.0000110
  C       -0.1739040    -1.2155620     0.0000200
  C       -0.1739050     1.2155640    -0.0000130
  C       -1.5696920    -1.2075950     0.0000510
  C       -1.5696910     1.2075950     0.0000170
  C       -2.2707750    -0.0000010     0.0000490
  H        0.3801340    -2.1498420     0.0000210
  H        0.3801360     2.1498430    -0.0000380
  H       -2.1080360    -2.1520700     0.0000760
  H       -2.1080390     2.1520680     0.0000160
  H       -3.3575250     0.0000000     0.0000730
