 11
#Generated by chemFileConvert.py
  N        0.4972020    -0.4883560    -0.0000030
  C       -1.8933690    -0.0828130     0.0000000
  C       -0.4636380     0.3576020     0.0000030
  C        1.8471220     0.0589730     0.0000010
  H       -2.4159140     0.3032330     0.8816800
  H       -2.4159290     0.3032900    -0.8816460
  H       -1.9397520    -1.1727070    -0.0000330
  H       -0.2803450     1.4451730    -0.0000110
  H        1.8763800     1.1592220     0.0000020
  H        2.3772280    -0.3111450    -0.8820540
  H        2.3772250    -0.3111470     0.8820570
