 16
#Generated by chemFileConvert.py
  F       -0.8877360     1.6438520    -0.0000090
  O        0.5963310    -1.5951230    -0.0000100
  N        1.4876940     0.5283410     0.0000080
  C       -0.8948090     0.2512980     0.0000000
  C       -1.9951030    -0.4179850     0.7549870
  C       -1.9951080    -0.4179870    -0.7549750
  C        0.4689560    -0.3659830     0.0000000
  C        2.8766980     0.1124380     0.0000010
  H       -2.6981940     0.2412550     1.2525940
  H       -1.7416620    -1.3380720     1.2694370
  H       -1.7416990    -1.3380720    -1.2694420
  H       -2.6981990     0.2412650    -1.2525680
  H        1.2473010     1.5101930     0.0000000
  H        3.3936150     0.4789380     0.8911940
  H        3.3935940     0.4788830    -0.8912260
  H        2.8865570    -0.9771380     0.0000350
