  6
#Generated by chemFileConvert.py
  C       -1.1514980     0.0189760     0.0000000
  S        0.6615760    -0.0865720     0.0000000
  H        0.8970800     1.2330580     0.0000010
  H       -1.5245560     0.5221240    -0.8925240
  H       -1.5241930    -1.0059720    -0.0000190
  H       -1.5245560     0.5220900     0.8925430
