 21
#Generated by chemFileConvert.py
  S        1.2441830     0.0010390    -0.8590750
  F        1.5874080    -1.0933110     1.5061340
  F        3.3145200    -0.0009050     0.7339870
  F        1.5874370     1.0896860     1.5087600
  O        1.6149610    -1.2856280    -1.4517330
  O        1.6149580     1.2891350    -1.4486230
  C       -0.4817510     0.0005820    -0.4824320
  C       -1.1416100    -1.2204050    -0.3274150
  C       -1.1416150     1.2211910    -0.3244870
  C       -3.1954030    -0.0001810     0.1494170
  C        1.9826530    -0.0010090     0.8356960
  C       -2.4997500    -1.2060900    -0.0161970
  C       -2.4997550     1.2061250    -0.0133040
  C       -4.6532730    -0.0006360     0.5253300
  H       -0.6057720    -2.1536140    -0.4772800
  H       -0.6057800     2.1547590    -0.4721140
  H       -3.0298860    -2.1498930     0.0955450
  H       -3.0298940     2.1496560     0.1007020
  H       -5.1606490     0.8856040     0.1349280
  H       -5.1606620    -0.8858980     0.1327310
  H       -4.7748820    -0.0019860     1.6139510
