 12
#Generated by chemFileConvert.py
  C       -1.1166550    -0.8391130    -0.0000170
  H       -1.9859870    -1.4923720     0.0000140
  C        0.1683650    -1.3866060     0.0000150
  H        0.2994420    -2.4661000     0.0000130
  C        1.2850220    -0.5474960    -0.0000180
  H        2.2854270    -0.9737280     0.0000080
  C        1.1166540     0.8391130     0.0000160
  H        1.9859870     1.4923730    -0.0000260
  C       -0.1683650     1.3866070    -0.0000140
  H       -0.2994410     2.4661010     0.0000400
  C       -1.2850210     0.5474950     0.0000150
  H       -2.2854280     0.9737260    -0.0000310
