 10
#Generated by chemFileConvert.py
  S        0.0496630    -0.1768790     0.0000010
  O        0.1614460    -0.8614300     1.2843790
  O        0.1614460    -0.8614400    -1.2843720
  N        1.2328540     0.9913630    -0.0000040
  C       -1.5173820     0.6822410    -0.0000030
  H       -1.5963900     1.2940100    -0.8996310
  H       -2.3012170    -0.0772020     0.0000010
  H       -1.5963900     1.2940180     0.8996200
  H        1.2952780     1.5346040    -0.8557480
  H        1.2952780     1.5346110     0.8557360
