 18
#Generated by chemFileConvert.py
  O        1.0848250    -0.4328680    -0.0000110
  O       -1.0848250    -0.4328670    -0.0000100
  O        0.0000000     1.5811570     0.0000070
  C        2.3404700     0.2905210    -0.0000040
  C       -2.3404700     0.2905210    -0.0000020
  C        3.4331290    -0.7532350     0.0000100
  C       -3.4331290    -0.7532350     0.0000090
  C        0.0000000     0.3625560    -0.0000030
  H        2.3799590     0.9318790    -0.8844210
  H        2.3799440     0.9318880     0.8844070
  H       -2.3799450     0.9318860     0.8844110
  H       -2.3799580     0.9318810    -0.8844170
  H        4.4117970    -0.2652620     0.0000140
  H        3.3585260    -1.3857810     0.8868320
  H        3.3585390    -1.3857920    -0.8868050
  H       -4.4117970    -0.2652620     0.0000130
  H       -3.3585380    -1.3857890    -0.8868080
  H       -3.3585270    -1.3857830     0.8868290
