 13
#Generated by chemFileConvert.py
  N        3.2235920     0.0000000    -0.0000720
  C        0.6037120     0.0000010    -0.0000120
  C       -0.0916070     1.2188380     0.0000020
  C       -0.0916060    -1.2188370     0.0000020
  C       -1.4853720     1.2105070     0.0000330
  C       -1.4853700    -1.2105080     0.0000330
  C       -2.1831670    -0.0000010     0.0000480
  C        2.0399540     0.0000010    -0.0000440
  H        0.4610180     2.1546720    -0.0000100
  H        0.4610230    -2.1546690    -0.0000100
  H       -2.0281130     2.1522020     0.0000440
  H       -2.0281090    -2.1522040     0.0000440
  H       -3.2702320    -0.0000020     0.0000720
