 10
#Generated by chemFileConvert.py
  O       -1.7591310    -0.6256700    -0.0105990
  O       -0.5927860     1.3233720     0.0061900
  C        0.6234440    -0.7534420     0.0138260
  C        1.8947270     0.0837590    -0.0104510
  C       -0.6914680     0.0598240     0.0008270
  H        0.6063340    -1.3973420     0.9027530
  H        0.5989400    -1.4400340    -0.8420030
  H        1.9272400     0.7093280    -0.9057120
  H        1.9316050     0.7516740     0.8531480
  H        2.7909900    -0.5460950     0.0018790
