 21
#Generated by chemFileConvert.py
  N        0.2769550    -0.2036720    -0.3241330
  C       -0.2734970     1.1052870     0.1974480
  C       -0.8318510    -1.2416080    -0.1373660
  C       -1.7487720     1.0080340    -0.1478690
  C       -2.0899640    -0.4391570     0.2222400
  C        1.6014160    -0.6227950     0.2602130
  C        2.7021640     0.3718760    -0.0544870
  H        0.4198120    -0.0821770    -1.3354460
  H        0.2647170     1.9344670    -0.2636010
  H       -0.1049550     1.1121840     1.2781340
  H       -0.5119850    -1.9240980     0.6516280
  H       -0.9170180    -1.8004520    -1.0710850
  H       -1.9040400     1.1951860    -1.2159660
  H       -2.3418250     1.7391150     0.4059550
  H       -2.2892440    -0.5166410     1.2941000
  H       -2.9682270    -0.8151510    -0.3061210
  H        1.4364190    -0.7316030     1.3351050
  H        1.8217380    -1.6082590    -0.1583240
  H        2.8177600     0.5164630    -1.1327800
  H        2.5337300     1.3397110     0.4209800
  H        3.6474560    -0.0228690     0.3252770
