 27
#Generated by chemFileConvert.py
  N       -0.4820890    -0.2204400     0.0611380
  C        0.4931350    -1.2664130    -0.4574980
  C        0.0352210     1.1635170    -0.2825800
  C        1.9231090    -1.0498370     0.0125270
  C        1.4559810     1.4024730     0.2057820
  C       -1.8126550    -0.4655410    -0.6371030
  C        2.4161490     0.3504860    -0.3416810
  C       -0.6569180    -0.3697370     1.5418350
  C       -2.9537840     0.4422600    -0.2148440
  H        0.4401460    -1.2024090    -1.5488290
  H        0.0974590    -2.2384020    -0.1488000
  H       -0.6659240     1.8829090     0.1439630
  H       -0.0118010     1.2353730    -1.3742740
  H        2.5349810    -1.8144250    -0.4785470
  H        2.0170420    -1.2344280     1.0876600
  H        1.4907670     1.4297660     1.3002730
  H        1.7427260     2.4044990    -0.1312730
  H       -1.6076080    -0.3598680    -1.7054840
  H       -2.0575360    -1.5131640    -0.4404110
  H        3.4221240     0.5100020     0.0566650
  H        2.4871430     0.4507070    -1.4320070
  H        0.3126810    -0.3486860     2.0312100
  H       -1.2698770     0.4499320     1.9127640
  H       -1.1475680    -1.3248790     1.7354010
  H       -3.8251770     0.1584960    -0.8113200
  H       -3.2293180     0.3182590     0.8332870
  H       -2.7570620     1.4961540    -0.4168730
