 15
#Generated by chemFileConvert.py
  N       -1.2324810    -0.0000240    -0.0000010
  C       -0.3323220     1.2314210     0.1457240
  C       -0.3322730    -1.2314350    -0.1457220
  C        1.0439290     0.7199610    -0.2571670
  C        1.0439580    -0.7199190     0.2571660
  H       -1.8512360    -0.0930200     0.8140460
  H       -1.8512350     0.0929480    -0.8140510
  H       -0.3668390     1.5267420     1.1955240
  H       -0.7357950     2.0357900    -0.4702450
  H       -0.3667790    -1.5267620    -1.1955210
  H       -0.7357130    -2.0358170     0.4702510
  H        1.8333540     1.3329410     0.1830080
  H        1.1642110     0.7451780    -1.3446810
  H        1.8334070    -1.3328680    -0.1830100
  H        1.1642440    -0.7451310     1.3446800
