 12
#Generated by chemFileConvert.py
  N        0.1711350    -1.0406470     0.0001130
  N        1.5396510     0.7139170    -0.0000360
  C       -0.6485970     0.0689120    -0.0000300
  C       -2.1370520    -0.0165460    -0.0000430
  C        0.2284270     1.1349600    -0.0001140
  C        1.4682190    -0.6084950     0.0000980
  H       -0.1381210    -2.0051120     0.0001710
  H       -2.5175930    -0.5357270     0.8861500
  H       -2.5555550     0.9925160    -0.0001930
  H       -2.5175640    -0.5359780    -0.8861020
  H       -0.0214450     2.1884610    -0.0002290
  H        2.3087860    -1.2900390     0.0001920
