 22
#Generated by chemFileConvert.py
  S        0.8782360    -1.1051720    -0.5345130
  S       -0.8782360    -1.1051730     0.5345140
  C        3.2099970     0.3192160    -0.3483490
  C       -3.2099950     0.3192180     0.3483520
  C        1.8323980     0.2076140     0.2961040
  C       -1.8324000     0.2076110    -0.2961070
  C        4.0501390     1.4083310     0.3151470
  C       -4.0501390     1.4083310    -0.3151470
  H        3.7252040    -0.6448290    -0.2731450
  H        3.0977470     0.5364970    -1.4165130
  H       -3.7252050    -0.6448260     0.2731560
  H       -3.0977410     0.5365060     1.4165140
  H        1.9224270    -0.0395970     1.3577410
  H        1.2963330     1.1580260     0.2082030
  H       -1.9224330    -0.0396070    -1.3577420
  H       -1.2963320     1.1580220    -0.2082140
  H        4.1959570     1.1966930     1.3784960
  H        5.0361400     1.4799610    -0.1523260
  H        3.5647660     2.3850540     0.2285540
  H       -4.1959620     1.1966860    -1.3784950
  H       -5.0361370     1.4799650     0.1523300
  H       -3.5647630     2.3850530    -0.2285630
