 12
#Generated by chemFileConvert.py
  F        2.2868760     0.0000000    -0.0001800
  C        0.9280430     0.0000000    -0.0000740
  C        0.2598710     1.2183910    -0.0001390
  C        0.2598710    -1.2183910     0.0000940
  C       -1.1363420     1.2092690    -0.0000240
  C       -1.1363420    -1.2092690     0.0002070
  C       -1.8359950     0.0000000     0.0001450
  H        0.8295710     2.1426150    -0.0002710
  H        0.8295700    -2.1426150     0.0001400
  H       -1.6765610     2.1524830    -0.0000740
  H       -1.6765620    -2.1524830     0.0003390
  H       -2.9225380     0.0000000     0.0002340
