 16
#Generated by chemFileConvert.py
  F       -0.0963580     2.2498010    -0.0002150
  O        1.7683730     0.3991100    -0.0000070
  C        0.4770520    -0.0443510     0.0000100
  C       -0.5052370     0.9594120    -0.0001040
  C        0.0593170    -1.3782210     0.0001240
  C       -1.8569270     0.6655340    -0.0001050
  C       -1.3077240    -1.6845900     0.0001240
  C       -2.2644630    -0.6734790     0.0000110
  C        2.7793550    -0.6059020     0.0001420
  H        0.7856920    -2.1838160     0.0002110
  H       -2.5691860     1.4853780    -0.0001950
  H       -1.6154480    -2.7269510     0.0002140
  H       -3.3233590    -0.9156310     0.0000120
  H        2.7155550    -1.2340820    -0.8948950
  H        2.7154750    -1.2338950     0.8953060
  H        3.7232780    -0.0625150     0.0001270
