 18
#Generated by chemFileConvert.py
 Br       -2.5380180    -0.0000120     0.9448210
 Br       -0.5280640    -1.5862110    -0.9362640
 Br       -0.5280770     1.5862250    -0.9362460
  C        0.2865210    -0.0000040     1.3350980
  C        1.7253110    -0.0000010     0.8978270
  C       -0.7275630    -0.0000010     0.1866520
  C        2.4064250    -1.2084570     0.6972750
  C        2.4064210     1.2084560     0.6972700
  C        3.7400270    -1.2080000     0.2881000
  C        3.7400230     1.2080010     0.2880960
  C        4.4087440     0.0000010     0.0783490
  H        0.0657210     0.8845180     1.9439930
  H        0.0657230    -0.8845300     1.9439880
  H        1.8907430    -2.1510710     0.8652730
  H        1.8907350     2.1510690     0.8652640
  H        4.2591870    -2.1516120     0.1385310
  H        4.2591800     2.1516140     0.1385230
  H        5.4488490     0.0000020    -0.2384650
