 18
#Generated by chemFileConvert.py
  C       -1.2414900    -1.4034410    -0.0038760
  C       -2.4324190    -0.7073040     0.0029100
  C       -2.4324190     0.7073040    -0.0029100
  C       -1.2414900     1.4034410     0.0038760
  C        0.0000000     0.7161900    -0.0087120
  C        1.2414900     1.4034410     0.0038760
  C        2.4324190     0.7073040    -0.0029100
  C        2.4324190    -0.7073040     0.0029100
  C        1.2414900    -1.4034410    -0.0038760
  C        0.0000000    -0.7161900     0.0087120
  H       -1.2405800    -2.4925790     0.0017850
  H       -3.3771300    -1.2461620    -0.0033580
  H       -3.3771300     1.2461620     0.0033580
  H       -1.2405800     2.4925790    -0.0017850
  H        1.2405800     2.4925790    -0.0017850
  H        3.3771300     1.2461620     0.0033580
  H        3.3771300    -1.2461620    -0.0033580
  H        1.2405800    -2.4925790     0.0017850
