  7
#Generated by chemFileConvert.py
  S       -1.3434220    -0.1276070     0.0000000
  O        0.9008660     1.3391190     0.0000000
  C        1.2796100    -1.0089470     0.0000000
  C        0.3525050     0.2195930    -0.0000010
  H        1.0855710    -1.6283600     0.8805770
  H        2.3240130    -0.6783680    -0.0000170
  H        1.0855470    -1.6283820    -0.8805570
