 13
#Generated by chemFileConvert.py
  C        0.2606960     1.2022910    -0.0000270
  C       -1.1358900     1.2179210     0.0000200
  C       -1.8563270     0.0234090    -0.0000150
  C       -1.1686000    -1.1938320     0.0000190
  C        0.2243100    -1.2218560    -0.0000260
  C        0.9375760    -0.0198920     0.0000150
  O        2.3096970    -0.1121780     0.0000090
  H        0.8194350     2.1375370     0.0000180
  H       -1.6578250     2.1718150    -0.0000190
  H       -2.9427270     0.0394130     0.0000350
  H       -1.7202280    -2.1308750    -0.0000170
  H        0.7758460    -2.1577480     0.0000080
  H        2.6773420     0.7890330    -0.0000190
