 14
#Generated by chemFileConvert.py
  O        3.0568210     0.0670890     0.3064100
  C       -1.7873110     0.5014740    -0.3308760
  C       -2.7589810    -0.3710180     0.4711220
  C       -0.4385240    -0.1343210    -0.4437030
  C        0.7079740     0.3780980     0.0389610
  C        1.9769390    -0.3447360    -0.1093610
  H       -1.6911510     1.4872370     0.1370160
  H       -2.1942130     0.6629350    -1.3374030
  H       -2.8765390    -1.3546870     0.0071490
  H       -3.7457810     0.0968040     0.5260030
  H       -2.3920550    -0.5186010     1.4901810
  H       -0.4015900    -1.1050250    -0.9450900
  H        0.7410060     1.3377710     0.5508970
  H        1.9051690    -1.3201300    -0.6368870
