 19
#Generated by chemFileConvert.py
  O        1.6617960     2.5152110     0.0229320
  N       -1.9329240    -0.4005880    -0.0147920
  N        1.9545050     0.2323110     0.0113410
  N        0.2669280    -1.4301930    -0.0208730
  N       -1.3834780     1.7915450    -0.0193170
  N        2.5221760    -2.0364130     0.0734370
  C       -0.5634760    -0.3442740    -0.0026930
  C       -0.2488450     1.0144850    -0.0147620
  C        1.1380320     1.4076430     0.0031510
  C       -2.3683130     0.9036150    -0.0164120
  C        1.5275980    -1.0721200    -0.0057920
  C       -2.7322540    -1.6127190     0.0339130
  H       -3.4247340     1.1445090    -0.0228960
  H       -2.2735910    -2.3629350    -0.6109560
  H       -2.7853950    -1.9995380     1.0543320
  H       -3.7366260    -1.3828770    -0.3245450
  H        2.9468270     0.4301980     0.1174830
  H        2.1372730    -2.9631930    -0.0801050
  H        3.3349710    -1.8642740    -0.5097710
