 19
#Generated by chemFileConvert.py
  O        0.0779330    -0.9269250    -0.8850860
  O       -0.5497830     2.4054250     0.0105510
  O       -1.2273040    -1.7124440     0.8968780
  O        2.8355650    -0.3742720    -0.2242840
  C       -0.6080970     1.0161320     0.3256370
  C        0.5731950     0.3283540    -0.3705440
  C       -1.8147930     0.2671960    -0.2390730
  C       -1.2359040    -1.1221150    -0.3954320
  C        1.7465980     0.1105970     0.5541480
  H       -0.5498730     0.8655980     1.4125560
  H        0.8905780     0.9380060    -1.2243810
  H       -2.6989340     0.2874680     0.4026800
  H       -2.0570860     0.6846600    -1.2212740
  H       -1.7431510    -1.7703690    -1.1193200
  H        1.4450650    -0.6065030     1.3308310
  H        1.9882130     1.0713000     1.0354480
  H       -1.2210140     2.8543510     0.5524830
  H       -0.6896120    -2.5214440     0.8182530
  H        3.5785240    -0.5383230     0.3798300
