 22
#Generated by chemFileConvert.py
  S       -0.2843290    -1.0417180    -0.4822060
  S       -1.2930100    -0.0874980     1.0369220
  C        2.1238400     0.2887900     0.2038150
  C        1.0396200     0.1533490    -0.8629430
  C        2.9192510    -1.0021470     0.3722670
  C        3.0447110     1.4546860    -0.1566850
  C       -2.4716220     0.9595520     0.1214310
  C       -3.5526510     0.1784370    -0.6085800
  H        1.6262880     0.5245030     1.1534370
  H        0.5779630     1.1249780    -1.0703900
  H        1.4790180    -0.2071920    -1.8028130
  H        3.4447510    -1.2503740    -0.5573050
  H        3.6685740    -0.8925310     1.1622050
  H        2.2689100    -1.8409630     0.6322130
  H        3.5445930     1.2705230    -1.1143000
  H        3.8190730     1.5865050     0.6053340
  H        2.4877820     2.3935810    -0.2389320
  H       -2.9081960     1.6071890     0.8902020
  H       -1.9136130     1.6021350    -0.5664560
  H       -3.1113230    -0.4862970    -1.3548100
  H       -4.1326680    -0.4262340     0.0924750
  H       -4.2326230     0.8656350    -1.1221400
