  8
#Generated by chemFileConvert.py
  F        1.1818710    -0.3420110    -0.0000470
  C        0.1054700     0.5542920     0.0000170
  C       -1.1881640    -0.2253880     0.0000270
  H        0.1975230     1.1848990     0.8894060
  H        0.1974700     1.1849630    -0.8893330
  H       -2.0446770     0.4547970     0.0000770
  H       -1.2455220    -0.8599590    -0.8867050
  H       -1.2454690    -0.8600240     0.8867160
