 11
#Generated by chemFileConvert.py
  N       -0.0000010    -1.4266340     0.0000030
  C       -1.1454080    -0.7209990    -0.0000050
  H       -2.0619370    -1.3085340     0.0000260
  C       -1.1976280     0.6737390    -0.0000030
  H       -2.1568020     1.1840410     0.0000160
  C        0.0000010     1.3879130    -0.0000020
  H        0.0000010     2.4750860     0.0000140
  C        1.1976290     0.6737370    -0.0000020
  H        2.1568030     1.1840380     0.0000210
  C        1.1454070    -0.7210000    -0.0000090
  H        2.0619350    -1.3085360     0.0000300
