 19
#Generated by chemFileConvert.py
  O        1.2764910    -0.5580180    -0.0000140
  C       -0.0526320    -0.2163280    -0.0000090
  C        2.2283480     0.5091050    -0.0000050
  C       -0.5417410     1.0945740     0.0000030
  C       -0.9442280    -1.2979990     0.0000050
  C        3.5986500    -0.1324730     0.0000120
  C       -1.9250240     1.3079840    -0.0000030
  C       -2.3159710    -1.0695280    -0.0000020
  C       -2.8161410     0.2373500     0.0000110
  H        2.0858520     1.1373040    -0.8891130
  H        2.0858350     1.1373010     0.8891040
  H        0.1282520     1.9474600    -0.0000130
  H       -0.5338010    -2.3041010    -0.0000080
  H        4.3764260     0.6364270     0.0000070
  H        3.7225630    -0.7572470     0.8867960
  H        3.7225780    -0.7572730    -0.8867510
  H       -2.3006170     2.3287260     0.0000070
  H       -2.9984970    -1.9161460     0.0000120
  H       -3.8880810     0.4155830     0.0000010
