 10
#Generated by chemFileConvert.py
  N        1.2972060    -0.1834440    -0.0000110
  C        0.0425070     0.5749550    -0.0000170
  C       -1.2341620    -0.2639620     0.0000230
  H        0.0562240     1.2306650     0.8768470
  H        0.0562020     1.2306140    -0.8769190
  H       -1.2739250    -0.9067860    -0.8853860
  H       -1.2739030    -0.9067350     0.8854710
  H       -2.1289910     0.3670470     0.0000160
  H        1.3169290    -0.7983510    -0.8130380
  H        1.3169460    -0.7983090     0.8130470
