 10
#Generated by chemFileConvert.py
  O        1.3941920    -0.6912850     0.0000000
  C       -0.5551820     0.7378090     0.0000000
  C       -1.4187620    -0.5146170     0.0000000
  C        0.9211590     0.4378490     0.0000000
  H       -0.7621570     1.3722180    -0.8730110
  H       -0.7621560     1.3722160     0.8730140
  H       -1.2110080    -1.1259350     0.8804310
  H       -1.2109850    -1.1259500    -0.8804160
  H       -2.4795810    -0.2529830    -0.0000160
  H        1.5890620     1.3244730    -0.0000010
