 10
#Generated by chemFileConvert.py
  C        0.0000000    -0.6978810     1.1359140
  C        0.0000000     0.6978810     1.1359140
  N        0.0000000     1.4174160     0.0000000
  C        0.0000000     0.6978810    -1.1359140
  C        0.0000000    -0.6978810    -1.1359140
  N        0.0000010    -1.4174160     0.0000000
  H       -0.0000020    -1.2582750     2.0684350
  H       -0.0000020     1.2582750     2.0684350
  H       -0.0000020     1.2582750    -2.0684350
  H       -0.0000020    -1.2582750    -2.0684350
