  9
#Generated by chemFileConvert.py
  P       -0.5488650    -0.0716910     0.0000030
  O        0.9763320     0.8817470    -0.0000290
  O       -1.5802330     1.0646510     0.0000010
  O       -0.4210560    -0.8885070     1.3017940
  O       -0.4210920    -0.8885410    -1.3017700
  C        2.0914880     0.0467180    -0.0000030
  H        2.1167050    -0.6090860     0.8869400
  H        3.0190690     0.6585530    -0.0000680
  H        2.1166550    -0.6091990    -0.8868620
