 13
#Generated by chemFileConvert.py
  O       -0.3967630     1.3827740     0.0000000
  C        0.6783860    -0.7655410    -0.0000010
  C       -0.5237570     0.1609990     0.0000000
  C        2.0052410    -0.0209230     0.0000000
  C       -1.8877680    -0.4956940     0.0000000
  H        0.5948200    -1.4269330     0.8729260
  H        0.5948210    -1.4269320    -0.8729280
  H        2.8419280    -0.7243630    -0.0000170
  H        2.0879400     0.6195460     0.8801910
  H        2.0879250     0.6195730    -0.8801720
  H       -2.0024030    -1.1346250     0.8816410
  H       -2.6611380     0.2731230    -0.0000020
  H       -2.0024020    -1.1346300    -0.8816370
