 10
#Generated by chemFileConvert.py
 Cl       -1.7654670    -0.3100810     0.0000010
  O        0.1191580     1.5181910     0.0000000
  C        0.9469270    -0.7644920    -0.0000020
  C        2.3654840    -0.2123060     0.0000020
  C       -0.0820700     0.3337300    -0.0000010
  H        0.7528160    -1.3957640     0.8742890
  H        0.7528180    -1.3957580    -0.8742970
  H        2.5431990     0.4048750    -0.8827100
  H        2.5431990     0.4048640     0.8827220
  H        3.0856000    -1.0339670    -0.0000030
