 10
#Generated by chemFileConvert.py
  N        0.0000000     0.5742850    -0.1528630
  C        1.2063400    -0.2259130     0.0208150
  C       -1.2063390    -0.2259120     0.0208160
  H        0.0000000     1.3211710     0.5395190
  H        1.2506670    -0.7711410     0.9791760
  H        2.0850840     0.4194780    -0.0535020
  H        1.2604060    -0.9634470    -0.7853030
  H       -2.0850820     0.4194800    -0.0534940
  H       -1.2506630    -0.7711500     0.9791720
  H       -1.2604150    -0.9634410    -0.7853080
