  8
#Generated by chemFileConvert.py
  C       -0.7629840     0.0000000    -0.0000020
  C        0.7629840     0.0000000    -0.0000010
  H       -1.1580530    -1.0189580     0.0291840
  H       -1.1580510     0.5347520     0.8678520
  H       -1.1580440     0.4842120    -0.8970350
  H        1.1580380    -0.4842010     0.8970430
  H        1.1580570    -0.5347620    -0.8678450
  H        1.1580520     1.0189580    -0.0291810
