 20
#Generated by chemFileConvert.py
  O       -2.9714190     0.8843310    -0.7445430
  O       -2.9714760    -0.8842960     0.7444570
  O       -0.5719940    -3.2988010     0.7833720
  O       -0.5719130     3.2988430    -0.7832930
  O       -1.5583320    -2.6751640    -1.0959160
  O       -1.5583470     2.6751420     1.0959240
  O        3.9378030    -1.0985810    -0.0520130
  O        3.9378150     1.0985380     0.0519920
  N       -0.8441900    -2.4722020    -0.1047670
  N       -0.8441610     2.4722110     0.1047990
  N        3.3563290    -0.0000180    -0.0000080
  C       -0.9300790     0.0000040     0.0000050
  C       -0.1699680    -1.1712100    -0.0217940
  C       -0.1699550     1.1712130     0.0218080
  C        1.8913620    -0.0000110     0.0000000
  C        1.2196430    -1.2181880    -0.0070480
  C        1.2196550     1.2181740     0.0070530
  C       -2.4885490     0.0000140    -0.0000270
  H        1.7571850    -2.1596840    -0.0048420
  H        1.7572080     2.1596640     0.0048470
