 11
#Generated by chemFileConvert.py
  S        0.8760760     1.1282850     0.0000000
  C       -0.5244280    -0.0603010     0.0000000
  C       -0.5244280    -0.9363990     1.2509370
  C       -0.5244280    -0.9363990    -1.2509370
  H       -1.4611330     0.5136640     0.0000000
  H        0.3938430    -1.5316650     1.2938450
  H       -0.5721740    -0.3268970     2.1577640
  H       -1.3798600    -1.6252560     1.2536820
  H        0.3938430    -1.5316650    -1.2938450
  H       -0.5721740    -0.3268970    -2.1577640
  H       -1.3798600    -1.6252560    -1.2536820
