 12
#Generated by chemFileConvert.py
 Br       -1.8067610     0.0000000    -0.0000580
  C        0.1015240     0.0000000     0.0000030
  C        0.7813260     1.2178930     0.0000420
  C        0.7813280    -1.2178930     0.0000080
  C        2.1776290     1.2084050     0.0000870
  C        2.1776280    -1.2084060     0.0000540
  C        2.8777560     0.0000010     0.0000930
  H        0.2278800     2.1522740     0.0000370
  H        0.2278770    -2.1522720    -0.0000220
  H        2.7165890     2.1526430     0.0001170
  H        2.7165920    -2.1526410     0.0000580
  H        3.9645660    -0.0000010     0.0001280
