 18
#Generated by chemFileConvert.py
  C        0.7346130     0.1891220     0.1900950
  C        2.0243220    -0.4448940    -0.3116160
  C        3.2622340     0.2402320     0.2600360
  N       -0.4193600    -0.4857200    -0.4149540
  C       -1.7035180    -0.0952720    -0.0256500
  N       -2.5587000    -0.9967610     0.3141660
  N       -1.8797470     1.2942350    -0.0420860
  H        0.6994080     0.1525640     1.2904030
  H        0.7171910     1.2457280    -0.0920920
  H        2.0327750    -1.5077160    -0.0383180
  H        2.0322450    -0.4005850    -1.4059060
  H        4.1782660    -0.2309580    -0.1061930
  H        3.2913410     1.2963050    -0.0251540
  H        3.2712060     0.1871530     1.3528370
  H       -0.3665540    -1.4966440    -0.2986730
  H       -3.4846870    -0.5823630     0.4503200
  H       -1.4198220     1.7451410    -0.8269410
  H       -2.8526270     1.5739620     0.0226340
