 13
#Generated by chemFileConvert.py
  N       -0.2982310    -1.1935080     0.0025490
  C       -0.8989600     0.0078550    -0.0037920
  C       -0.1841880     1.2189600    -0.0099150
  C        1.2026150     1.1703940     0.0047080
  C        1.8420660    -0.0728230     0.0063860
  C        1.0476430    -1.2144780     0.0023810
  H       -0.7133830     2.1685580    -0.0289310
  H        1.7801000     2.0918600     0.0058130
  H        2.9246530    -0.1531170     0.0136340
  H        1.4978100    -2.2059300     0.0047600
  N       -2.2903850    -0.0069810    -0.0833000
  H       -2.7551260     0.7553950     0.3966630
  H       -2.6687990    -0.9127910     0.1747070
