 14
#Generated by chemFileConvert.py
  N        0.0000020     1.3752550     0.0881560
  C        0.0000000    -0.0769010    -0.3911070
  C       -1.2745200    -0.7353630     0.1032760
  C        1.2745180    -0.7353670     0.1032760
  H        0.0000000    -0.0031690    -1.4821840
  H       -0.8310820     1.8851260    -0.2406460
  H        0.8310870     1.8851240    -0.2406470
  H        0.0000020     1.4165200     1.1165880
  H       -1.3097880    -1.7608000    -0.2705820
  H       -1.2994510    -0.7789970     1.1965910
  H       -2.1709030    -0.2224960    -0.2574420
  H        1.3097830    -1.7608040    -0.2705810
  H        1.2994490    -0.7790000     1.1965910
  H        2.1709020    -0.2225020    -0.2574420
