  9
#Generated by chemFileConvert.py
  C       -1.3690410    -0.5140960     0.0000000
  C        1.3690410    -0.5140960     0.0000000
  S        0.0000000     0.6645230     0.0000000
  H       -1.3484930    -1.1450300     0.8920030
  H       -2.2985200     0.0584580     0.0000000
  H       -1.3484910    -1.1450350    -0.8920000
  H        1.3484910    -1.1450330     0.8920010
  H        1.3484930    -1.1450320    -0.8920020
  H        2.2985200     0.0584580     0.0000040
