 18
#Generated by chemFileConvert.py
  O       -0.3837350    -0.6575400    -0.2190270
  O        0.7644980     1.3096330    -0.3008230
  C       -1.5732990     0.0884110    -0.4535820
  C       -2.3348950     0.5731210     0.7352070
  C       -2.8287970    -0.6125310    -0.0653010
  C        0.7497060     0.1014470    -0.1470330
  C        1.9486320    -0.7720410     0.1304860
  C        3.2415180     0.0282310     0.1994850
  H       -1.5381270     0.6983470    -1.3501410
  H       -2.8570690     1.5207960     0.6581610
  H       -1.9008860     0.3656440     1.7072090
  H       -2.7164270    -1.5934380     0.3831630
  H       -3.7013020    -0.4946440    -0.6989290
  H        1.9898960    -1.5384530    -0.6513980
  H        1.7579480    -1.3107300     1.0655760
  H        3.4252360     0.5490440    -0.7422050
  H        3.1899860     0.7802560     0.9891470
  H        4.0874550    -0.6333920     0.4026520
