 16
#Generated by chemFileConvert.py
  O        2.7492870    -0.4444080    -0.3255660
  C        0.4478010     0.2535480     0.1422200
  C        1.9227290     0.5353460     0.3039820
  C       -0.4705520     1.2975130    -0.0129740
  C       -0.0181040    -1.0668530     0.1769140
  C       -1.8363320     1.0297060    -0.1264010
  C       -1.3816060    -1.3361720     0.0562850
  C       -2.2946030    -0.2887270    -0.0921720
  H        2.1508400     1.5462880    -0.0661420
  H        2.2077940     0.5035040     1.3602030
  H       -0.1156540     2.3265940    -0.0519690
  H        0.6988060    -1.8765010     0.2888330
  H       -2.5409410     1.8488810    -0.2497220
  H       -1.7340300    -2.3648050     0.0819890
  H       -3.3571840    -0.4996190    -0.1856700
  H        2.4800800    -0.4752440    -1.2601150
