 12
#Generated by chemFileConvert.py
  C        0.7683720     0.7481230    -0.1475200
  C       -0.7481330     0.7683660     0.1474990
  C        0.7481170    -0.7683610     0.1476040
  C       -0.7683560    -0.7481270    -0.1475830
  H        0.9641630     0.9386830    -1.2073740
  H        1.4241000     1.3866200     0.4515560
  H       -0.9387680     0.9641120     1.2073470
  H       -1.3865890     1.4241190    -0.4515950
  H        1.3866390    -1.4241320    -0.4513990
  H        0.9386340    -0.9640770     1.2074800
  H       -1.4241510    -1.3866070     0.4514380
  H       -0.9640280    -0.9387180    -1.2074540
