  7
#Generated by chemFileConvert.py
  N        0.7515260     0.0000030    -0.1261400
  H        1.1399660     0.8124090     0.3481980
  H        1.1399710    -0.8124230     0.3481590
  C       -0.7067710     0.0000000     0.0176910
  H       -1.1106360    -0.8809610    -0.4863580
  H       -1.0787230    -0.0000410     1.0531300
  H       -1.1106370     0.8809980    -0.4862910
