 16
#Generated by chemFileConvert.py
  C       -2.8858990     0.0139170     0.0160750
  C        1.4367690    -0.0149750     0.0043080
  C        0.7466060     1.1986420    -0.0030770
  C        0.7284530    -1.2193540    -0.0027000
  C       -0.6498220     1.2004800    -0.0089530
  C       -0.6636960    -1.1986710    -0.0090440
  C       -1.3793230     0.0073340    -0.0165520
  O        2.8101740    -0.0968660     0.0091650
  H        1.2936780     2.1410060    -0.0034030
  H        3.1695990     0.8076070     0.0120990
  H        1.2824160    -2.1540570    -0.0024590
  H       -1.1767200     2.1533030    -0.0175850
  H       -1.2060630    -2.1429390    -0.0178450
  H       -3.2957090    -0.8164640    -0.5664260
  H       -3.2836900     0.9448070    -0.3980300
  H       -3.2634270    -0.0825680     1.0399950
