  6
#Generated by chemFileConvert.py
  N       -1.4539190     0.0000000     0.0000000
  C        1.1887110     0.0000000     0.0000000
  C       -0.2742650     0.0000010     0.0000000
  H        1.5635860     0.9070380    -0.4783560
  H        1.5635860    -0.8677880    -0.5463390
  H        1.5635870    -0.0392510     1.0246960
