 11
#Generated by chemFileConvert.py
  S       -0.5251900    -0.0446130     0.0000000
  O       -0.5231630    -0.8666190     1.2464430
  O       -1.5690800     1.0220300    -0.0000010
  O       -0.5231620    -0.8666200    -1.2464420
  C        1.0357230     0.8350160     0.0000000
  C        2.2383420    -0.0963210     0.0000000
  H        1.0305470     1.4783680    -0.8845630
  H        1.0305460     1.4783690     0.8845620
  H        3.1657760     0.4824540     0.0000000
  H        2.2275090    -0.7339400     0.8865020
  H        2.2275090    -0.7339410    -0.8865010
