 12
#Generated by chemFileConvert.py
  O        1.5430550    -0.9240020     0.2063440
  N        0.2134030     0.9216550    -0.0800630
  C       -0.9540580     0.3363880     0.5649300
  C       -1.7520880    -0.5668970    -0.3682110
  C        1.3595640     0.2061680    -0.2412530
  H       -0.5902520    -0.2347740     1.4219140
  H       -1.5704350     1.1562530     0.9448550
  H       -2.1103020    -0.0100280    -1.2385410
  H       -1.1203990    -1.3885820    -0.7113440
  H       -2.6183230    -0.9873920     0.1515880
  H        0.1176380     1.7925980    -0.5861160
  H        2.1333000     0.7584060    -0.8054640
