 17
#Generated by chemFileConvert.py
  N        2.8432840     0.0000010    -0.0745030
  C       -1.3986540     0.0000000    -0.0170120
  C        1.4375310     0.0000000     0.0042070
  C       -0.6732940    -1.1975080    -0.0091010
  C       -0.6732940     1.1975090    -0.0091010
  C        0.7202880    -1.2039700    -0.0142280
  C        0.7202880     1.2039700    -0.0142290
  C       -2.9047420     0.0000000     0.0276170
  H       -1.2062760    -2.1473880    -0.0194750
  H       -1.2062760     2.1473880    -0.0194750
  H        1.2592860    -2.1503840    -0.0188250
  H        1.2592870     2.1503840    -0.0188280
  H       -3.3126320     0.8846740    -0.4701760
  H       -3.3126330    -0.8846640    -0.4701940
  H       -3.2755950    -0.0000100     1.0587510
  H        3.2615550     0.8294510     0.3354210
  H        3.2615550    -0.8294590     0.3354000
